0_0_2494
 OpenBabel04152301373D

142152  0  0  1  0  0  0  0  0999 V2000
    0.9430   -0.3234    0.1744 C   0  0  0  0  0  0  0  0  0  0  0  0
    0.4286   -0.1405   -1.2628 C   0  0  0  0  0  0  0  0  0  0  0  0
    0.8256   -1.3832   -2.0668 C   0  0  0  0  0  0  0  0  0  0  0  0
   -1.1177    0.1720   -1.3472 C   0  0  1  0  0  0  0  0  0  0  0  0
   -1.5035    1.2770   -0.3446 C   0  0  0  0  0  0  0  0  0  0  0  0
   -1.6150    0.4191   -2.7300 N   0  3  2  0  0  0  0  0  0  0  0  0
   -0.8347    1.4049   -3.5219 C   0  0  1  0  0  0  0  0  0  0  0  0
   -0.2091    0.7448   -4.7688 C   0  0  0  0  0  0  0  0  0  0  0  0
   -0.5761   -0.3237   -5.2593 O   0  0  0  0  0  0  0  0  0  0  0  0
    0.7878    1.4127   -5.4189 N   0  0  0  0  0  0  0  0  0  0  0  0
    1.4683    2.6285   -5.0364 C   0  0  0  0  0  0  0  0  0  0  0  0
    2.9599    2.3722   -4.8495 C   0  0  0  0  0  0  0  0  0  0  0  0
    3.6818    1.9549   -6.1365 C   0  0  0  0  0  0  0  0  0  0  0  0
    3.4991    2.9151   -7.3166 C   0  0  0  0  0  0  0  0  0  0  0  0
    3.8706    4.3697   -7.0229 C   0  0  0  0  0  0  0  0  0  0  0  0
    5.3025    4.5669   -6.5421 C   0  0  0  0  0  0  0  0  0  0  0  0
    6.2759    4.1663   -7.5447 N   0  0  0  0  0  0  0  0  0  0  0  0
    7.3321    4.8735   -8.0569 C   0  0  0  0  0  0  0  0  0  0  0  0
    7.9407    4.4562   -9.0400 O   0  0  0  0  0  0  0  0  0  0  0  0
    7.7256    6.1551   -7.4375 C   0  0  0  0  0  0  0  0  0  0  0  0
    8.0077    7.2456   -8.2631 C   0  0  0  0  0  0  0  0  0  0  0  0
    8.3224    8.4799   -7.6928 C   0  0  0  0  0  0  0  0  0  0  0  0
    8.3123    8.6404   -6.2973 C   0  0  0  0  0  0  0  0  0  0  0  0
    8.5720    9.9627   -5.6745 C   0  0  0  0  0  0  0  0  0  0  0  0
    9.7729   10.1610   -4.7926 C   0  0  0  0  0  0  0  0  0  0  0  0
   10.1400   11.2221   -4.1187 N   0  0  0  0  0  0  0  0  0  0  0  0
   11.2905   10.8551   -3.4332 C   0  0  0  0  0  0  0  0  0  0  0  0
   12.0838   11.6189   -2.6444 C   0  0  0  0  0  0  0  0  0  0  0  0
   13.2725   10.9586   -2.0046 C   0  0  0  0  0  0  0  0  0  0  0  0
   14.3717   10.5180   -2.7580 C   0  0  0  0  0  0  0  0  0  0  0  0
   14.3695   10.6445   -4.0937 F   0  0  0  0  0  0  0  0  0  0  0  0
   15.4611    9.9027   -2.1461 C   0  0  0  0  0  0  0  0  0  0  0  0
   16.4724    9.4380   -2.8929 F   0  0  0  0  0  0  0  0  0  0  0  0
   15.4937    9.7546   -0.7679 C   0  0  0  0  0  0  0  0  0  0  0  0
   16.5453    9.1679   -0.1799 F   0  0  0  0  0  0  0  0  0  0  0  0
   14.4319   10.2076   -0.0002 C   0  0  0  0  0  0  0  0  0  0  0  0
   14.4680   10.0796    1.3334 F   0  0  0  0  0  0  0  0  0  0  0  0
   13.3256   10.7913   -0.6121 C   0  0  0  0  0  0  0  0  0  0  0  0
   12.3062   11.2000    0.1582 F   0  0  0  0  0  0  0  0  0  0  0  0
   11.8517   13.0141   -2.3746 C   0  0  0  0  0  0  0  0  0  0  0  0
   12.6376   13.8952   -1.6530 C   0  0  0  0  0  0  0  0  0  0  0  0
   11.9757   15.1260   -1.5965 C   0  0  0  0  0  0  0  0  0  0  0  0
   10.8092   15.0320   -2.3385 C   0  0  0  0  0  0  0  0  0  0  0  0
   10.7448   13.7295   -2.8087 N   0  0  0  0  0  0  0  0  0  0  0  0
    9.8252   16.0529   -2.5978 C   0  0  0  0  0  0  0  0  0  0  0  0
   10.0610   17.4168   -2.0134 C   0  0  0  0  0  0  0  0  0  0  0  0
    9.2651   17.9257   -0.9767 C   0  0  0  0  0  0  0  0  0  0  0  0
    8.2266   17.2150   -0.5113 F   0  0  0  0  0  0  0  0  0  0  0  0
    9.5073   19.1887   -0.4421 C   0  0  0  0  0  0  0  0  0  0  0  0
    8.7009   19.6762    0.5110 F   0  0  0  0  0  0  0  0  0  0  0  0
   10.5714   19.9488   -0.9040 C   0  0  0  0  0  0  0  0  0  0  0  0
   10.8083   21.1599   -0.3816 F   0  0  0  0  0  0  0  0  0  0  0  0
   11.3850   19.4565   -1.9126 C   0  0  0  0  0  0  0  0  0  0  0  0
   12.4239   20.1819   -2.3492 F   0  0  0  0  0  0  0  0  0  0  0  0
   11.1243   18.2096   -2.4733 C   0  0  0  0  0  0  0  0  0  0  0  0
   11.9210   17.7679   -3.4582 F   0  0  0  0  0  0  0  0  0  0  0  0
    8.7135   15.8839   -3.3556 C   0  0  0  0  0  0  0  0  0  0  0  0
    8.2835   14.7517   -4.0348 N   0  0  0  0  0  0  0  0  0  0  0  0
    7.1546   15.0841   -4.6118 C   0  0  0  0  0  0  0  0  0  0  0  0
    6.2648   14.2635   -5.5063 C   0  0  0  0  0  0  0  0  0  0  0  0
    5.0395   14.8526   -6.1078 C   0  0  0  0  0  0  0  0  0  0  0  0
    5.1317   15.8669   -7.0716 C   0  0  0  0  0  0  0  0  0  0  0  0
    6.3348   16.3251   -7.4476 F   0  0  0  0  0  0  0  0  0  0  0  0
    3.9894   16.4442   -7.6219 C   0  0  0  0  0  0  0  0  0  0  0  0
    4.1066   17.4447   -8.5054 F   0  0  0  0  0  0  0  0  0  0  0  0
    2.7329   15.9965   -7.2437 C   0  0  0  0  0  0  0  0  0  0  0  0
    1.6343   16.5487   -7.7761 F   0  0  0  0  0  0  0  0  0  0  0  0
    2.6167   14.9808   -6.3067 C   0  0  0  0  0  0  0  0  0  0  0  0
    1.4046   14.5346   -5.9498 F   0  0  0  0  0  0  0  0  0  0  0  0
    3.7580   14.4239   -5.7333 C   0  0  0  0  0  0  0  0  0  0  0  0
    3.6141   13.4533   -4.8190 F   0  0  0  0  0  0  0  0  0  0  0  0
    6.6069   12.9911   -5.7836 C   0  0  0  0  0  0  0  0  0  0  0  0
    5.8491   12.0756   -6.6310 C   0  0  0  0  0  0  0  0  0  0  0  0
    6.4677   10.8845   -6.6517 C   0  0  0  0  0  0  0  0  0  0  0  0
    7.6915   10.9662   -5.8532 C   0  0  0  0  0  0  0  0  0  0  0  0
    7.6872   12.2508   -5.3697 N   0  0  0  0  0  0  0  0  0  0  0  0
    6.7215   16.4603   -4.3333 C   0  0  0  0  0  0  0  0  0  0  0  0
    7.7286   16.9165   -3.6025 C   0  0  0  0  0  0  0  0  0  0  0  0
   11.5324    9.4600   -3.7299 C   0  0  0  0  0  0  0  0  0  0  0  0
   10.6661    9.0047   -4.6224 C   0  0  0  0  0  0  0  0  0  0  0  0
    8.0502    7.5297   -5.4811 C   0  0  0  0  0  0  0  0  0  0  0  0
    7.8142    6.2814   -6.0481 C   0  0  0  0  0  0  0  0  0  0  0  0
   -1.7987    2.5061   -3.9722 C   0  0  0  0  0  0  0  0  0  0  0  0
   -3.0035    2.3199   -3.0673 C   0  0  1  0  0  0  0  0  0  0  0  0
   -4.2920    2.9357   -3.5997 C   0  0  0  0  0  0  0  0  0  0  0  0
   -4.8728    2.1848   -4.7898 C   0  0  0  0  0  0  0  0  0  0  0  0
   -5.0168    0.6978   -4.4839 C   0  0  0  0  0  0  0  0  0  0  0  0
   -3.6840    0.0749   -4.0685 C   0  0  0  0  0  0  0  0  0  0  0  0
   -3.0403    0.8006   -2.8669 C   0  0  1  0  0  0  0  0  0  0  0  0
    1.9924   -0.5311    0.1539 H   0  0  0  0  0  0  0  0  0  0  0  0
    0.4270   -1.1387    0.6369 H   0  0  0  0  0  0  0  0  0  0  0  0
    0.7676    0.5724    0.7327 H   0  0  0  0  0  0  0  0  0  0  0  0
    0.8860    0.7290   -1.6865 H   0  0  0  0  0  0  0  0  0  0  0  0
    0.3647   -2.2481   -1.6374 H   0  0  0  0  0  0  0  0  0  0  0  0
    1.8892   -1.4977   -2.0445 H   0  0  0  0  0  0  0  0  0  0  0  0
    0.5001   -1.2715   -3.0800 H   0  0  0  0  0  0  0  0  0  0  0  0
   -1.6317   -0.7200   -1.0555 H   0  0  0  0  0  0  0  0  0  0  0  0
   -1.0053    2.1868   -0.6073 H   0  0  0  0  0  0  0  0  0  0  0  0
   -1.2108    0.9820    0.6414 H   0  0  0  0  0  0  0  0  0  0  0  0
   -2.5622    1.4294   -0.3718 H   0  0  0  0  0  0  0  0  0  0  0  0
   -1.4869   -0.5202   -3.1065 H   0  0  0  0  0  0  0  0  0  0  0  0
   -0.0422    1.7983   -2.9201 H   0  0  0  0  0  0  0  0  0  0  0  0
    1.0847    1.0099   -6.2668 H   0  0  0  0  0  0  0  0  0  0  0  0
    1.0554    2.9884   -4.1172 H   0  0  0  0  0  0  0  0  0  0  0  0
    1.3374    3.3555   -5.8105 H   0  0  0  0  0  0  0  0  0  0  0  0
    3.0803    1.5922   -4.1270 H   0  0  0  0  0  0  0  0  0  0  0  0
    3.3975    3.2955   -4.5319 H   0  0  0  0  0  0  0  0  0  0  0  0
    3.3122    0.9943   -6.4288 H   0  0  0  0  0  0  0  0  0  0  0  0
    4.7272    1.9538   -5.9084 H   0  0  0  0  0  0  0  0  0  0  0  0
    2.4712    2.8872   -7.6125 H   0  0  0  0  0  0  0  0  0  0  0  0
    4.1678    2.5820   -8.0826 H   0  0  0  0  0  0  0  0  0  0  0  0
    3.2095    4.7381   -6.2665 H   0  0  0  0  0  0  0  0  0  0  0  0
    3.7823    4.9009   -7.9475 H   0  0  0  0  0  0  0  0  0  0  0  0
    5.4542    3.9803   -5.6602 H   0  0  0  0  0  0  0  0  0  0  0  0
    5.4431    5.6090   -6.3441 H   0  0  0  0  0  0  0  0  0  0  0  0
    6.1599    3.2583   -7.9071 H   0  0  0  0  0  0  0  0  0  0  0  0
    7.9836    7.1393   -9.2893 H   0  0  0  0  0  0  0  0  0  0  0  0
    8.5638    9.2790   -8.2996 H   0  0  0  0  0  0  0  0  0  0  0  0
   13.5540   13.6811   -1.2296 H   0  0  0  0  0  0  0  0  0  0  0  0
   12.3012   15.9630   -1.0880 H   0  0  0  0  0  0  0  0  0  0  0  0
   10.0208   13.3658   -3.3679 H   0  0  0  0  0  0  0  0  0  0  0  0
    4.9778   12.3069   -7.1334 H   0  0  0  0  0  0  0  0  0  0  0  0
    6.1337   10.0453   -7.1509 H   0  0  0  0  0  0  0  0  0  0  0  0
    8.3917   12.6077   -4.7819 H   0  0  0  0  0  0  0  0  0  0  0  0
    5.8595   16.9445   -4.6291 H   0  0  0  0  0  0  0  0  0  0  0  0
    7.8017   17.8850   -3.2536 H   0  0  0  0  0  0  0  0  0  0  0  0
   12.2817    8.8938   -3.3022 H   0  0  0  0  0  0  0  0  0  0  0  0
   10.6278    8.0801   -5.0792 H   0  0  0  0  0  0  0  0  0  0  0  0
    8.0324    7.6393   -4.4551 H   0  0  0  0  0  0  0  0  0  0  0  0
    7.7049    5.4512   -5.4449 H   0  0  0  0  0  0  0  0  0  0  0  0
   -2.0697    2.3797   -4.9996 H   0  0  0  0  0  0  0  0  0  0  0  0
   -1.3731    3.4852   -3.9007 H   0  0  0  0  0  0  0  0  0  0  0  0
   -2.9172    2.8481   -2.1408 H   0  0  0  0  0  0  0  0  0  0  0  0
   -4.0883    3.9423   -3.9001 H   0  0  0  0  0  0  0  0  0  0  0  0
   -5.0146    2.8877   -2.8120 H   0  0  0  0  0  0  0  0  0  0  0  0
   -4.2230    2.3071   -5.6311 H   0  0  0  0  0  0  0  0  0  0  0  0
   -5.8427    2.5834   -5.0025 H   0  0  0  0  0  0  0  0  0  0  0  0
   -5.3761    0.1970   -5.3585 H   0  0  0  0  0  0  0  0  0  0  0  0
   -5.7038    0.5893   -3.6708 H   0  0  0  0  0  0  0  0  0  0  0  0
   -3.0102    0.1214   -4.8984 H   0  0  0  0  0  0  0  0  0  0  0  0
   -3.8757   -0.9355   -3.7731 H   0  0  0  0  0  0  0  0  0  0  0  0
   -3.6317    0.5265   -2.0184 H   0  0  0  0  0  0  0  0  0  0  0  0
  1  2  1  0  0  0  0
  1 90  1  0  0  0  0
  1 91  1  0  0  0  0
  1 92  1  0  0  0  0
  2  3  1  0  0  0  0
  2  4  1  0  0  0  0
  2 93  1  0  0  0  0
  3 94  1  0  0  0  0
  3 95  1  0  0  0  0
  3 96  1  0  0  0  0
  4  5  1  0  0  0  0
  4  6  1  0  0  0  0
  4 97  1  1  0  0  0
  5 98  1  0  0  0  0
  5 99  1  0  0  0  0
  5100  1  0  0  0  0
  6  7  1  0  0  0  0
  6 89  1  0  0  0  0
  6101  1  6  0  0  0
  7 83  1  0  0  0  0
  7  8  1  0  0  0  0
  7102  1  1  0  0  0
  8  9  2  0  0  0  0
  8 10  1  0  0  0  0
 10 11  1  0  0  0  0
 10103  1  0  0  0  0
 11 12  1  0  0  0  0
 11104  1  0  0  0  0
 11105  1  0  0  0  0
 12 13  1  0  0  0  0
 12106  1  0  0  0  0
 12107  1  0  0  0  0
 13 14  1  0  0  0  0
 13108  1  0  0  0  0
 13109  1  0  0  0  0
 14 15  1  0  0  0  0
 14110  1  0  0  0  0
 14111  1  0  0  0  0
 15 16  1  0  0  0  0
 15112  1  0  0  0  0
 15113  1  0  0  0  0
 16 17  1  0  0  0  0
 16114  1  0  0  0  0
 16115  1  0  0  0  0
 17 18  1  0  0  0  0
 17116  1  0  0  0  0
 18 19  2  0  0  0  0
 18 20  1  0  0  0  0
 20 21  1  0  0  0  0
 20 82  2  0  0  0  0
 21 22  2  0  0  0  0
 21117  1  0  0  0  0
 22 23  1  0  0  0  0
 22118  1  0  0  0  0
 23 24  1  0  0  0  0
 23 81  2  0  0  0  0
 24 25  1  0  0  0  0
 24 75  2  0  0  0  0
 25 26  2  0  0  0  0
 25 80  1  0  0  0  0
 26 27  1  0  0  0  0
 27 28  2  0  0  0  0
 27 79  1  0  0  0  0
 28 29  1  0  0  0  0
 28 40  1  0  0  0  0
 29 30  1  0  0  0  0
 29 38  2  0  0  0  0
 30 31  1  0  0  0  0
 30 32  2  0  0  0  0
 32 33  1  0  0  0  0
 32 34  1  0  0  0  0
 34 35  1  0  0  0  0
 34 36  2  0  0  0  0
 36 37  1  0  0  0  0
 36 38  1  0  0  0  0
 38 39  1  0  0  0  0
 40 41  2  0  0  0  0
 40 44  1  0  0  0  0
 41 42  1  0  0  0  0
 41119  1  0  0  0  0
 42 43  2  0  0  0  0
 42120  1  0  0  0  0
 43 44  1  0  0  0  0
 43 45  1  0  0  0  0
 44121  1  0  0  0  0
 45 46  1  0  0  0  0
 45 57  2  0  0  0  0
 46 47  1  0  0  0  0
 46 55  2  0  0  0  0
 47 48  1  0  0  0  0
 47 49  2  0  0  0  0
 49 50  1  0  0  0  0
 49 51  1  0  0  0  0
 51 52  1  0  0  0  0
 51 53  2  0  0  0  0
 53 54  1  0  0  0  0
 53 55  1  0  0  0  0
 55 56  1  0  0  0  0
 57 58  1  0  0  0  0
 57 78  1  0  0  0  0
 58 59  2  0  0  0  0
 59 60  1  0  0  0  0
 59 77  1  0  0  0  0
 60 61  1  0  0  0  0
 60 72  2  0  0  0  0
 61 62  1  0  0  0  0
 61 70  2  0  0  0  0
 62 63  1  0  0  0  0
 62 64  2  0  0  0  0
 64 65  1  0  0  0  0
 64 66  1  0  0  0  0
 66 67  1  0  0  0  0
 66 68  2  0  0  0  0
 68 69  1  0  0  0  0
 68 70  1  0  0  0  0
 70 71  1  0  0  0  0
 72 73  1  0  0  0  0
 72 76  1  0  0  0  0
 73 74  2  0  0  0  0
 73122  1  0  0  0  0
 74 75  1  0  0  0  0
 74123  1  0  0  0  0
 75 76  1  0  0  0  0
 76124  1  0  0  0  0
 77 78  2  0  0  0  0
 77125  1  0  0  0  0
 78126  1  0  0  0  0
 79 80  2  0  0  0  0
 79127  1  0  0  0  0
 80128  1  0  0  0  0
 81 82  1  0  0  0  0
 81129  1  0  0  0  0
 82130  1  0  0  0  0
 83 84  1  0  0  0  0
 83131  1  0  0  0  0
 83132  1  0  0  0  0
 84 85  1  0  0  0  0
 84 89  1  0  0  0  0
 84133  1  1  0  0  0
 85 86  1  0  0  0  0
 85134  1  0  0  0  0
 85135  1  0  0  0  0
 86 87  1  0  0  0  0
 86136  1  0  0  0  0
 86137  1  0  0  0  0
 87 88  1  0  0  0  0
 87138  1  0  0  0  0
 87139  1  0  0  0  0
 88 89  1  0  0  0  0
 88140  1  0  0  0  0
 88141  1  0  0  0  0
 89142  1  1  0  0  0
M  CHG  1   6   1
M  END
$$$$
