0_0_831
 OpenBabel04152301373D

127137  0  0  1  0  0  0  0  0999 V2000
    0.8117    0.0936    0.0985 C   0  0  0  0  0  0  0  0  0  0  0  0
    0.0807   -0.9214   -0.7412 C   0  0  0  0  0  0  0  0  0  0  0  0
    0.1633   -2.2634   -0.3232 C   0  0  0  0  0  0  0  0  0  0  0  0
   -0.3502   -3.2949   -1.1052 C   0  0  0  0  0  0  0  0  0  0  0  0
   -0.9015   -3.0007   -2.3513 C   0  0  0  0  0  0  0  0  0  0  0  0
   -0.9928   -1.6792   -2.7868 C   0  0  0  0  0  0  0  0  0  0  0  0
   -0.5666   -0.6160   -1.9585 C   0  0  0  0  0  0  0  0  0  0  0  0
   -0.7376    0.7939   -2.4674 C   0  0  0  0  0  0  0  0  0  0  0  0
   -1.3748   -1.3394   -4.0537 O   0  0  0  0  0  0  0  0  0  0  0  0
   -1.2623   -2.3337   -5.0570 C   0  0  1  0  0  0  0  0  0  0  0  0
   -0.0222   -2.3325   -5.9932 C   0  0  0  0  0  0  0  0  0  0  0  0
   -0.1761   -2.1601   -7.2096 O   0  0  0  0  0  0  0  0  0  0  0  0
    1.2515   -2.5747   -5.5920 N   0  0  0  0  0  0  0  0  0  0  0  0
    1.8685   -2.6585   -4.2896 C   0  0  0  0  0  0  0  0  0  0  0  0
    2.4364   -4.0452   -3.9939 C   0  0  0  0  0  0  0  0  0  0  0  0
    3.9685   -4.0692   -3.9814 C   0  0  0  0  0  0  0  0  0  0  0  0
    4.6260   -3.1423   -2.9483 C   0  0  0  0  0  0  0  0  0  0  0  0
    4.1812   -3.3593   -1.5004 C   0  0  0  0  0  0  0  0  0  0  0  0
    4.4207   -4.7730   -0.9815 C   0  0  0  0  0  0  0  0  0  0  0  0
    5.8317   -5.1282   -1.0316 N   0  0  0  0  0  0  0  0  0  0  0  0
    6.7138   -5.3111    0.0001 C   0  0  0  0  0  0  0  0  0  0  0  0
    7.9233   -5.3586   -0.2056 O   0  0  0  0  0  0  0  0  0  0  0  0
    6.1945   -5.4500    1.3717 C   0  0  0  0  0  0  0  0  0  0  0  0
    6.7577   -4.6874    2.3965 C   0  0  0  0  0  0  0  0  0  0  0  0
    6.2456   -4.7936    3.6892 C   0  0  0  0  0  0  0  0  0  0  0  0
    5.1575   -5.6425    3.9500 C   0  0  0  0  0  0  0  0  0  0  0  0
    4.6196   -5.7872    5.3214 C   0  0  0  0  0  0  0  0  0  0  0  0
    4.8301   -7.0740    6.0647 C   0  0  0  0  0  0  0  0  0  0  0  0
    4.4310   -7.4100    7.2644 N   0  0  0  0  0  0  0  0  0  0  0  0
    4.8837   -8.7071    7.4594 C   0  0  0  0  0  0  0  0  0  0  0  0
    4.7999   -9.4675    8.5752 C   0  0  0  0  0  0  0  0  0  0  0  0
    5.4235  -10.8311    8.5380 C   0  0  0  0  0  0  0  0  0  0  0  0
    6.8170  -10.9955    8.5074 C   0  0  0  0  0  0  0  0  0  0  0  0
    7.6220   -9.9244    8.4385 F   0  0  0  0  0  0  0  0  0  0  0  0
    7.3892  -12.2642    8.5186 C   0  0  0  0  0  0  0  0  0  0  0  0
    8.7211  -12.3971    8.4507 F   0  0  0  0  0  0  0  0  0  0  0  0
    6.5833  -13.3899    8.5944 C   0  0  0  0  0  0  0  0  0  0  0  0
    7.1362  -14.6103    8.6234 F   0  0  0  0  0  0  0  0  0  0  0  0
    5.2041  -13.2508    8.6374 C   0  0  0  0  0  0  0  0  0  0  0  0
    4.4246  -14.3375    8.7249 F   0  0  0  0  0  0  0  0  0  0  0  0
    4.6273  -11.9843    8.5957 C   0  0  0  0  0  0  0  0  0  0  0  0
    3.2902  -11.8824    8.6298 F   0  0  0  0  0  0  0  0  0  0  0  0
    4.1666   -9.0418    9.7938 C   0  0  0  0  0  0  0  0  0  0  0  0
    4.0605   -9.7239   10.9920 C   0  0  0  0  0  0  0  0  0  0  0  0
    3.3117   -8.9401   11.8736 C   0  0  0  0  0  0  0  0  0  0  0  0
    2.9988   -7.7455   11.2441 C   0  0  0  0  0  0  0  0  0  0  0  0
    3.5274   -7.8226    9.9664 N   0  0  0  0  0  0  0  0  0  0  0  0
    2.2647   -6.6218   11.7692 C   0  0  0  0  0  0  0  0  0  0  0  0
    1.7432   -6.7402   13.1719 C   0  0  0  0  0  0  0  0  0  0  0  0
    0.3768   -6.9166   13.4317 C   0  0  0  0  0  0  0  0  0  0  0  0
   -0.5117   -6.8790   12.4273 F   0  0  0  0  0  0  0  0  0  0  0  0
   -0.0840   -7.1149   14.7303 C   0  0  0  0  0  0  0  0  0  0  0  0
   -1.3974   -7.2519   14.9590 F   0  0  0  0  0  0  0  0  0  0  0  0
    0.8126   -7.1718   15.7871 C   0  0  0  0  0  0  0  0  0  0  0  0
    0.3689   -7.3876   17.0330 F   0  0  0  0  0  0  0  0  0  0  0  0
    2.1689   -7.0050   15.5525 C   0  0  0  0  0  0  0  0  0  0  0  0
    3.0387   -7.0790   16.5694 F   0  0  0  0  0  0  0  0  0  0  0  0
    2.6299   -6.7750   14.2597 C   0  0  0  0  0  0  0  0  0  0  0  0
    3.9480   -6.6210   14.0632 F   0  0  0  0  0  0  0  0  0  0  0  0
    2.0165   -5.4707   11.0977 C   0  0  0  0  0  0  0  0  0  0  0  0
    2.3935   -5.1125    9.8103 N   0  0  0  0  0  0  0  0  0  0  0  0
    1.9048   -3.9124    9.6107 C   0  0  0  0  0  0  0  0  0  0  0  0
    2.0320   -3.0242    8.4010 C   0  0  0  0  0  0  0  0  0  0  0  0
    1.4590   -1.6529    8.3935 C   0  0  0  0  0  0  0  0  0  0  0  0
    1.9923   -0.6484    9.2131 C   0  0  0  0  0  0  0  0  0  0  0  0
    3.0098   -0.9299   10.0402 F   0  0  0  0  0  0  0  0  0  0  0  0
    1.4643    0.6410    9.2090 C   0  0  0  0  0  0  0  0  0  0  0  0
    1.9712    1.5726   10.0279 F   0  0  0  0  0  0  0  0  0  0  0  0
    0.4104    0.9588    8.3658 C   0  0  0  0  0  0  0  0  0  0  0  0
   -0.0890    2.2021    8.3530 F   0  0  0  0  0  0  0  0  0  0  0  0
   -0.1266   -0.0150    7.5376 C   0  0  0  0  0  0  0  0  0  0  0  0
   -1.1337    0.2921    6.7087 F   0  0  0  0  0  0  0  0  0  0  0  0
    0.3829   -1.3119    7.5610 C   0  0  0  0  0  0  0  0  0  0  0  0
   -0.1608   -2.2342    6.7534 F   0  0  0  0  0  0  0  0  0  0  0  0
    2.7089   -3.4732    7.3264 C   0  0  0  0  0  0  0  0  0  0  0  0
    2.9422   -2.7269    6.0921 C   0  0  0  0  0  0  0  0  0  0  0  0
    3.6375   -3.4962    5.2384 C   0  0  0  0  0  0  0  0  0  0  0  0
    3.9235   -4.7798    5.8790 C   0  0  0  0  0  0  0  0  0  0  0  0
    3.3288   -4.6792    7.1111 N   0  0  0  0  0  0  0  0  0  0  0  0
    1.1365   -3.3826   10.7463 C   0  0  0  0  0  0  0  0  0  0  0  0
    1.2702   -4.3541   11.6393 C   0  0  0  0  0  0  0  0  0  0  0  0
    5.5264   -9.1252    6.2339 C   0  0  0  0  0  0  0  0  0  0  0  0
    5.5748   -8.1309    5.3605 C   0  0  0  0  0  0  0  0  0  0  0  0
    4.6060   -6.4074    2.9116 C   0  0  0  0  0  0  0  0  0  0  0  0
    5.1554   -6.3477    1.6369 C   0  0  0  0  0  0  0  0  0  0  0  0
   -1.6966   -3.7314   -4.6495 C   0  0  0  0  0  0  0  0  0  0  0  0
   -1.2382   -4.0966   -3.2734 C   0  0  0  0  0  0  0  0  0  0  0  0
   -1.1523   -5.2658   -2.9081 O   0  0  0  0  0  0  0  0  0  0  0  0
    1.2132   -0.3849    0.9673 H   0  0  0  0  0  0  0  0  0  0  0  0
    0.1327    0.8645    0.3976 H   0  0  0  0  0  0  0  0  0  0  0  0
    1.6084    0.5220   -0.4730 H   0  0  0  0  0  0  0  0  0  0  0  0
    0.6124   -2.4866    0.5788 H   0  0  0  0  0  0  0  0  0  0  0  0
   -0.3228   -4.2689   -0.7651 H   0  0  0  0  0  0  0  0  0  0  0  0
   -0.3721    1.4839   -1.7358 H   0  0  0  0  0  0  0  0  0  0  0  0
   -1.7746    0.9838   -2.6501 H   0  0  0  0  0  0  0  0  0  0  0  0
   -0.1873    0.9139   -3.3772 H   0  0  0  0  0  0  0  0  0  0  0  0
   -2.0193   -1.9533   -5.7106 H   0  0  0  0  0  0  0  0  0  0  0  0
    1.8787   -2.7225   -6.3364 H   0  0  0  0  0  0  0  0  0  0  0  0
    1.1343   -2.4240   -3.5474 H   0  0  0  0  0  0  0  0  0  0  0  0
    2.6836   -1.9655   -4.2732 H   0  0  0  0  0  0  0  0  0  0  0  0
    2.0900   -4.7238   -4.7452 H   0  0  0  0  0  0  0  0  0  0  0  0
    2.1018   -4.3289   -3.0180 H   0  0  0  0  0  0  0  0  0  0  0  0
    4.3125   -3.7802   -4.9525 H   0  0  0  0  0  0  0  0  0  0  0  0
    4.2488   -5.0653   -3.7092 H   0  0  0  0  0  0  0  0  0  0  0  0
    4.3969   -2.1322   -3.2169 H   0  0  0  0  0  0  0  0  0  0  0  0
    5.6722   -3.3651   -2.9736 H   0  0  0  0  0  0  0  0  0  0  0  0
    3.1338   -3.1504   -1.4356 H   0  0  0  0  0  0  0  0  0  0  0  0
    4.7712   -2.7038   -0.8945 H   0  0  0  0  0  0  0  0  0  0  0  0
    3.8670   -5.4628   -1.5836 H   0  0  0  0  0  0  0  0  0  0  0  0
    4.1001   -4.8149    0.0385 H   0  0  0  0  0  0  0  0  0  0  0  0
    6.2042   -5.2547   -1.9341 H   0  0  0  0  0  0  0  0  0  0  0  0
    7.5457   -4.0509    2.1992 H   0  0  0  0  0  0  0  0  0  0  0  0
    6.6673   -4.2470    4.4563 H   0  0  0  0  0  0  0  0  0  0  0  0
    4.4642  -10.6508   11.1991 H   0  0  0  0  0  0  0  0  0  0  0  0
    3.0376   -9.2059   12.8324 H   0  0  0  0  0  0  0  0  0  0  0  0
    3.4597   -7.1175    9.2826 H   0  0  0  0  0  0  0  0  0  0  0  0
    2.6238   -1.7631    5.9060 H   0  0  0  0  0  0  0  0  0  0  0  0
    3.9237   -3.2254    4.2846 H   0  0  0  0  0  0  0  0  0  0  0  0
    3.3450   -5.4033    7.7779 H   0  0  0  0  0  0  0  0  0  0  0  0
    0.6267   -2.4890   10.8275 H   0  0  0  0  0  0  0  0  0  0  0  0
    0.8906   -4.3188   12.5983 H   0  0  0  0  0  0  0  0  0  0  0  0
    5.8981  -10.0726    6.0624 H   0  0  0  0  0  0  0  0  0  0  0  0
    6.0187   -8.1040    4.4292 H   0  0  0  0  0  0  0  0  0  0  0  0
    3.7919   -7.0147    3.0945 H   0  0  0  0  0  0  0  0  0  0  0  0
    4.7984   -6.9629    0.8892 H   0  0  0  0  0  0  0  0  0  0  0  0
   -1.2874   -4.4341   -5.3450 H   0  0  0  0  0  0  0  0  0  0  0  0
   -2.7664   -3.7524   -4.6515 H   0  0  0  0  0  0  0  0  0  0  0  0
  1  2  1  0  0  0  0
  1 89  1  0  0  0  0
  1 90  1  0  0  0  0
  1 91  1  0  0  0  0
  2  3  1  0  0  0  0
  2  7  2  0  0  0  0
  3  4  2  0  0  0  0
  3 92  1  0  0  0  0
  4  5  1  0  0  0  0
  4 93  1  0  0  0  0
  5  6  2  0  0  0  0
  5 87  1  0  0  0  0
  6  7  1  0  0  0  0
  6  9  1  0  0  0  0
  7  8  1  0  0  0  0
  8 94  1  0  0  0  0
  8 95  1  0  0  0  0
  8 96  1  0  0  0  0
  9 10  1  0  0  0  0
 10 11  1  0  0  0  0
 10 86  1  0  0  0  0
 10 97  1  6  0  0  0
 11 12  2  0  0  0  0
 11 13  1  0  0  0  0
 13 14  1  0  0  0  0
 13 98  1  0  0  0  0
 14 15  1  0  0  0  0
 14 99  1  0  0  0  0
 14100  1  0  0  0  0
 15 16  1  0  0  0  0
 15101  1  0  0  0  0
 15102  1  0  0  0  0
 16 17  1  0  0  0  0
 16103  1  0  0  0  0
 16104  1  0  0  0  0
 17 18  1  0  0  0  0
 17105  1  0  0  0  0
 17106  1  0  0  0  0
 18 19  1  0  0  0  0
 18107  1  0  0  0  0
 18108  1  0  0  0  0
 19 20  1  0  0  0  0
 19109  1  0  0  0  0
 19110  1  0  0  0  0
 20 21  1  0  0  0  0
 20111  1  0  0  0  0
 21 22  2  0  0  0  0
 21 23  1  0  0  0  0
 23 24  1  0  0  0  0
 23 85  2  0  0  0  0
 24 25  2  0  0  0  0
 24112  1  0  0  0  0
 25 26  1  0  0  0  0
 25113  1  0  0  0  0
 26 27  1  0  0  0  0
 26 84  2  0  0  0  0
 27 28  1  0  0  0  0
 27 78  2  0  0  0  0
 28 29  2  0  0  0  0
 28 83  1  0  0  0  0
 29 30  1  0  0  0  0
 30 31  2  0  0  0  0
 30 82  1  0  0  0  0
 31 32  1  0  0  0  0
 31 43  1  0  0  0  0
 32 33  1  0  0  0  0
 32 41  2  0  0  0  0
 33 34  1  0  0  0  0
 33 35  2  0  0  0  0
 35 36  1  0  0  0  0
 35 37  1  0  0  0  0
 37 38  1  0  0  0  0
 37 39  2  0  0  0  0
 39 40  1  0  0  0  0
 39 41  1  0  0  0  0
 41 42  1  0  0  0  0
 43 44  2  0  0  0  0
 43 47  1  0  0  0  0
 44 45  1  0  0  0  0
 44114  1  0  0  0  0
 45 46  2  0  0  0  0
 45115  1  0  0  0  0
 46 47  1  0  0  0  0
 46 48  1  0  0  0  0
 47116  1  0  0  0  0
 48 49  1  0  0  0  0
 48 60  2  0  0  0  0
 49 50  1  0  0  0  0
 49 58  2  0  0  0  0
 50 51  1  0  0  0  0
 50 52  2  0  0  0  0
 52 53  1  0  0  0  0
 52 54  1  0  0  0  0
 54 55  1  0  0  0  0
 54 56  2  0  0  0  0
 56 57  1  0  0  0  0
 56 58  1  0  0  0  0
 58 59  1  0  0  0  0
 60 61  1  0  0  0  0
 60 81  1  0  0  0  0
 61 62  2  0  0  0  0
 62 63  1  0  0  0  0
 62 80  1  0  0  0  0
 63 64  1  0  0  0  0
 63 75  2  0  0  0  0
 64 65  1  0  0  0  0
 64 73  2  0  0  0  0
 65 66  1  0  0  0  0
 65 67  2  0  0  0  0
 67 68  1  0  0  0  0
 67 69  1  0  0  0  0
 69 70  1  0  0  0  0
 69 71  2  0  0  0  0
 71 72  1  0  0  0  0
 71 73  1  0  0  0  0
 73 74  1  0  0  0  0
 75 76  1  0  0  0  0
 75 79  1  0  0  0  0
 76 77  2  0  0  0  0
 76117  1  0  0  0  0
 77 78  1  0  0  0  0
 77118  1  0  0  0  0
 78 79  1  0  0  0  0
 79119  1  0  0  0  0
 80 81  2  0  0  0  0
 80120  1  0  0  0  0
 81121  1  0  0  0  0
 82 83  2  0  0  0  0
 82122  1  0  0  0  0
 83123  1  0  0  0  0
 84 85  1  0  0  0  0
 84124  1  0  0  0  0
 85125  1  0  0  0  0
 86 87  1  0  0  0  0
 86126  1  0  0  0  0
 86127  1  0  0  0  0
 87 88  2  0  0  0  0
M  END
$$$$
