0_0_2086
 OpenBabel04152301373D

139149  0  0  0  0  0  0  0  0999 V2000
    2.3784   -0.3865   -0.2585 C   0  0  0  0  0  0  0  0  0  0  0  0
    0.8812   -0.4016   -0.2568 C   0  0  0  0  0  0  0  0  0  0  0  0
    0.1613   -1.5762   -0.0972 C   0  0  0  0  0  0  0  0  0  0  0  0
   -1.2260   -1.5027    0.0001 C   0  0  0  0  0  0  0  0  0  0  0  0
   -1.8532   -0.2612   -0.0213 C   0  0  0  0  0  0  0  0  0  0  0  0
   -1.0683    0.8751   -0.1657 C   0  0  0  0  0  0  0  0  0  0  0  0
   -1.6840    2.2615   -0.0774 C   0  0  0  0  0  0  0  0  0  0  0  0
   -1.2876    3.0835    1.0866 N   0  3  1  0  0  0  0  0  0  0  0  0
   -1.7463    2.5449    2.3713 C   0  0  0  0  0  0  0  0  0  0  0  0
   -1.4549    3.5397    3.5042 C   0  0  0  0  0  0  0  0  0  0  0  0
    0.0240    3.9422    3.5191 C   0  0  2  0  0  0  0  0  0  0  0  0
    0.3712    4.8563    4.5651 O   0  0  0  0  0  0  0  0  0  0  0  0
   -0.1921    6.1569    4.5201 C   0  0  0  0  0  0  0  0  0  0  0  0
    0.3392    7.1383    3.4669 C   0  0  0  0  0  0  0  0  0  0  0  0
   -0.4201    7.7708    2.7305 O   0  0  0  0  0  0  0  0  0  0  0  0
    1.6854    7.3308    3.3421 N   0  0  0  0  0  0  0  0  0  0  0  0
    2.7486    6.8534    4.2029 C   0  0  0  0  0  0  0  0  0  0  0  0
    3.7066    5.8796    3.5145 C   0  0  0  0  0  0  0  0  0  0  0  0
    4.3031    6.3753    2.1908 C   0  0  0  0  0  0  0  0  0  0  0  0
    5.0572    7.7058    2.2764 C   0  0  0  0  0  0  0  0  0  0  0  0
    6.1520    7.7621    3.3432 C   0  0  0  0  0  0  0  0  0  0  0  0
    7.2392    6.7041    3.1969 C   0  0  0  0  0  0  0  0  0  0  0  0
    8.0487    6.9087    2.0066 N   0  0  0  0  0  0  0  0  0  0  0  0
    9.4103    7.0271    1.8965 C   0  0  0  0  0  0  0  0  0  0  0  0
    9.9172    7.3903    0.8354 O   0  0  0  0  0  0  0  0  0  0  0  0
   10.2755    6.7407    3.0606 C   0  0  0  0  0  0  0  0  0  0  0  0
   11.3257    7.6143    3.3528 C   0  0  0  0  0  0  0  0  0  0  0  0
   12.1230    7.3879    4.4767 C   0  0  0  0  0  0  0  0  0  0  0  0
   11.8496    6.3127    5.3389 C   0  0  0  0  0  0  0  0  0  0  0  0
   12.6496    6.0973    6.5726 C   0  0  0  0  0  0  0  0  0  0  0  0
   13.4861    4.8565    6.7264 C   0  0  0  0  0  0  0  0  0  0  0  0
   14.2123    4.4670    7.7447 N   0  0  0  0  0  0  0  0  0  0  0  0
   14.7592    3.2454    7.3743 C   0  0  0  0  0  0  0  0  0  0  0  0
   15.6487    2.4767    8.0475 C   0  0  0  0  0  0  0  0  0  0  0  0
   16.1160    1.2126    7.3840 C   0  0  0  0  0  0  0  0  0  0  0  0
   16.9460    1.2455    6.2523 C   0  0  0  0  0  0  0  0  0  0  0  0
   17.2948    2.4197    5.7048 F   0  0  0  0  0  0  0  0  0  0  0  0
   17.3928    0.0699    5.6550 C   0  0  0  0  0  0  0  0  0  0  0  0
   18.1454    0.1271    4.5476 F   0  0  0  0  0  0  0  0  0  0  0  0
   17.0511   -1.1593    6.1976 C   0  0  0  0  0  0  0  0  0  0  0  0
   17.4912   -2.2900    5.6286 F   0  0  0  0  0  0  0  0  0  0  0  0
   16.2482   -1.2162    7.3268 C   0  0  0  0  0  0  0  0  0  0  0  0
   15.9294   -2.4034    7.8610 F   0  0  0  0  0  0  0  0  0  0  0  0
   15.7730   -0.0428    7.9076 C   0  0  0  0  0  0  0  0  0  0  0  0
   14.9876   -0.1329    8.9914 F   0  0  0  0  0  0  0  0  0  0  0  0
   16.1823    2.8013    9.3447 C   0  0  0  0  0  0  0  0  0  0  0  0
   17.1027    2.0971   10.1014 C   0  0  0  0  0  0  0  0  0  0  0  0
   17.2864    2.7748   11.3109 C   0  0  0  0  0  0  0  0  0  0  0  0
   16.5229    3.9303   11.2854 C   0  0  0  0  0  0  0  0  0  0  0  0
   15.8417    3.9284   10.0783 N   0  0  0  0  0  0  0  0  0  0  0  0
   16.4206    4.9594   12.2878 C   0  0  0  0  0  0  0  0  0  0  0  0
   17.2609    4.8199   13.5252 C   0  0  0  0  0  0  0  0  0  0  0  0
   16.6933    4.5476   14.7787 C   0  0  0  0  0  0  0  0  0  0  0  0
   15.3620    4.4447   14.9091 F   0  0  0  0  0  0  0  0  0  0  0  0
   17.4901    4.4274   15.9143 C   0  0  0  0  0  0  0  0  0  0  0  0
   16.9211    4.2248   17.1107 F   0  0  0  0  0  0  0  0  0  0  0  0
   18.8691    4.5350   15.8127 C   0  0  0  0  0  0  0  0  0  0  0  0
   19.6343    4.4133   16.9060 F   0  0  0  0  0  0  0  0  0  0  0  0
   19.4538    4.7776   14.5793 C   0  0  0  0  0  0  0  0  0  0  0  0
   20.7871    4.8660   14.4761 F   0  0  0  0  0  0  0  0  0  0  0  0
   18.6579    4.9330   13.4481 C   0  0  0  0  0  0  0  0  0  0  0  0
   19.2528    5.1847   12.2723 F   0  0  0  0  0  0  0  0  0  0  0  0
   15.6395    6.0629   12.1884 C   0  0  0  0  0  0  0  0  0  0  0  0
   14.8080    6.4555   11.1478 N   0  0  0  0  0  0  0  0  0  0  0  0
   14.2544    7.5794   11.5331 C   0  0  0  0  0  0  0  0  0  0  0  0
   13.2992    8.4767   10.7902 C   0  0  0  0  0  0  0  0  0  0  0  0
   12.8131    9.7388   11.4105 C   0  0  0  0  0  0  0  0  0  0  0  0
   13.6961   10.7934   11.6849 C   0  0  0  0  0  0  0  0  0  0  0  0
   14.9944   10.6789   11.3678 F   0  0  0  0  0  0  0  0  0  0  0  0
   13.2637   11.9444   12.3406 C   0  0  0  0  0  0  0  0  0  0  0  0
   14.1435   12.9062   12.6506 F   0  0  0  0  0  0  0  0  0  0  0  0
   11.9313   12.0820   12.6981 C   0  0  0  0  0  0  0  0  0  0  0  0
   11.5169   13.1854   13.3351 F   0  0  0  0  0  0  0  0  0  0  0  0
   11.0320   11.0676   12.4066 C   0  0  0  0  0  0  0  0  0  0  0  0
    9.7405   11.2027   12.7369 F   0  0  0  0  0  0  0  0  0  0  0  0
   11.4706    9.9016   11.7823 C   0  0  0  0  0  0  0  0  0  0  0  0
   10.5823    8.9267   11.5391 F   0  0  0  0  0  0  0  0  0  0  0  0
   12.9020    8.1279    9.5515 C   0  0  0  0  0  0  0  0  0  0  0  0
   11.9910    8.8935    8.7066 C   0  0  0  0  0  0  0  0  0  0  0  0
   11.7895    8.2242    7.5602 C   0  0  0  0  0  0  0  0  0  0  0  0
   12.5916    6.9997    7.5717 C   0  0  0  0  0  0  0  0  0  0  0  0
   13.2159    7.0249    8.7944 N   0  0  0  0  0  0  0  0  0  0  0  0
   14.6460    8.0063   12.8840 C   0  0  0  0  0  0  0  0  0  0  0  0
   15.5313    7.0780   13.2146 C   0  0  0  0  0  0  0  0  0  0  0  0
   14.2282    2.9231    6.0678 C   0  0  0  0  0  0  0  0  0  0  0  0
   13.4911    3.9167    5.5940 C   0  0  0  0  0  0  0  0  0  0  0  0
   10.8069    5.4298    5.0194 C   0  0  0  0  0  0  0  0  0  0  0  0
   10.0601    5.6123    3.8578 C   0  0  0  0  0  0  0  0  0  0  0  0
    0.4775    4.3913    2.1322 C   0  0  0  0  0  0  0  0  0  0  0  0
    0.1594    3.3270    1.1031 C   0  0  0  0  0  0  0  0  0  0  0  0
    0.2790    0.8039   -0.3261 N   0  0  0  0  0  0  0  0  0  0  0  0
    2.7453   -1.3900   -0.2007 H   0  0  0  0  0  0  0  0  0  0  0  0
    2.7304    0.1710    0.5842 H   0  0  0  0  0  0  0  0  0  0  0  0
    2.7295    0.0703   -1.1602 H   0  0  0  0  0  0  0  0  0  0  0  0
    0.6443   -2.4871   -0.0514 H   0  0  0  0  0  0  0  0  0  0  0  0
   -1.7860   -2.3651    0.0877 H   0  0  0  0  0  0  0  0  0  0  0  0
   -2.8786   -0.1864    0.0681 H   0  0  0  0  0  0  0  0  0  0  0  0
   -2.7471    2.1443   -0.0464 H   0  0  0  0  0  0  0  0  0  0  0  0
   -1.3215    2.7890   -0.9349 H   0  0  0  0  0  0  0  0  0  0  0  0
   -1.7658    3.9767    0.9683 H   0  0  0  0  0  0  0  0  0  0  0  0
   -1.2367    1.6253    2.5700 H   0  0  0  0  0  0  0  0  0  0  0  0
   -2.8018    2.3771    2.3200 H   0  0  0  0  0  0  0  0  0  0  0  0
   -1.7027    3.0851    4.4406 H   0  0  0  0  0  0  0  0  0  0  0  0
   -2.0444    4.4183    3.3446 H   0  0  0  0  0  0  0  0  0  0  0  0
    0.5821    3.0631    3.7653 H   0  0  0  0  0  0  0  0  0  0  0  0
   -0.0353    6.6045    5.4793 H   0  0  0  0  0  0  0  0  0  0  0  0
   -1.2129    5.9955    4.2428 H   0  0  0  0  0  0  0  0  0  0  0  0
    1.9710    7.8639    2.5653 H   0  0  0  0  0  0  0  0  0  0  0  0
    2.3070    6.3568    5.0415 H   0  0  0  0  0  0  0  0  0  0  0  0
    3.3248    7.7076    4.4913 H   0  0  0  0  0  0  0  0  0  0  0  0
    3.1727    4.9734    3.3181 H   0  0  0  0  0  0  0  0  0  0  0  0
    4.5323    5.7532    4.1831 H   0  0  0  0  0  0  0  0  0  0  0  0
    3.5032    6.4920    1.4898 H   0  0  0  0  0  0  0  0  0  0  0  0
    5.0244    5.6422    1.8957 H   0  0  0  0  0  0  0  0  0  0  0  0
    4.3465    8.4768    2.4894 H   0  0  0  0  0  0  0  0  0  0  0  0
    5.5507    7.8304    1.3352 H   0  0  0  0  0  0  0  0  0  0  0  0
    5.6911    7.6362    4.3006 H   0  0  0  0  0  0  0  0  0  0  0  0
    6.6356    8.7098    3.2300 H   0  0  0  0  0  0  0  0  0  0  0  0
    6.7769    5.7410    3.1377 H   0  0  0  0  0  0  0  0  0  0  0  0
    7.8834    6.7755    4.0483 H   0  0  0  0  0  0  0  0  0  0  0  0
    7.5489    6.9710    1.1607 H   0  0  0  0  0  0  0  0  0  0  0  0
   11.5116    8.4239    2.7404 H   0  0  0  0  0  0  0  0  0  0  0  0
   12.9185    8.0146    4.6754 H   0  0  0  0  0  0  0  0  0  0  0  0
   17.5727    1.2221    9.8212 H   0  0  0  0  0  0  0  0  0  0  0  0
   17.8886    2.4664   12.0902 H   0  0  0  0  0  0  0  0  0  0  0  0
   15.2097    4.6239    9.7849 H   0  0  0  0  0  0  0  0  0  0  0  0
   11.5694    9.8032    8.9510 H   0  0  0  0  0  0  0  0  0  0  0  0
   11.1681    8.5251    6.7931 H   0  0  0  0  0  0  0  0  0  0  0  0
   13.8306    6.3192    9.0999 H   0  0  0  0  0  0  0  0  0  0  0  0
   14.3173    8.8170   13.4315 H   0  0  0  0  0  0  0  0  0  0  0  0
   16.0746    7.0785   14.0920 H   0  0  0  0  0  0  0  0  0  0  0  0
   14.4009    2.0357    5.5702 H   0  0  0  0  0  0  0  0  0  0  0  0
   13.0383    4.0079    4.6711 H   0  0  0  0  0  0  0  0  0  0  0  0
   10.5920    4.6406    5.6487 H   0  0  0  0  0  0  0  0  0  0  0  0
    9.3489    4.9157    3.5860 H   0  0  0  0  0  0  0  0  0  0  0  0
    1.5333    4.5648    2.1454 H   0  0  0  0  0  0  0  0  0  0  0  0
   -0.0395    5.2913    1.8723 H   0  0  0  0  0  0  0  0  0  0  0  0
    0.4769    3.6585    0.1366 H   0  0  0  0  0  0  0  0  0  0  0  0
    0.6718    2.4219    1.3543 H   0  0  0  0  0  0  0  0  0  0  0  0
  1  2  1  0  0  0  0
  1 92  1  0  0  0  0
  1 93  1  0  0  0  0
  1 94  1  0  0  0  0
  2  3  1  0  0  0  0
  2 91  2  0  0  0  0
  3  4  2  0  0  0  0
  3 95  1  0  0  0  0
  4  5  1  0  0  0  0
  4 96  1  0  0  0  0
  5  6  2  0  0  0  0
  5 97  1  0  0  0  0
  6  7  1  0  0  0  0
  6 91  1  0  0  0  0
  7  8  1  0  0  0  0
  7 98  1  0  0  0  0
  7 99  1  0  0  0  0
  8  9  1  0  0  0  0
  8 90  1  0  0  0  0
  8100  1  6  0  0  0
  9 10  1  0  0  0  0
  9101  1  0  0  0  0
  9102  1  0  0  0  0
 10 11  1  0  0  0  0
 10103  1  0  0  0  0
 10104  1  0  0  0  0
 11 12  1  0  0  0  0
 11 89  1  0  0  0  0
 11105  1  1  0  0  0
 12 13  1  0  0  0  0
 13 14  1  0  0  0  0
 13106  1  0  0  0  0
 13107  1  0  0  0  0
 14 15  2  0  0  0  0
 14 16  1  0  0  0  0
 16 17  1  0  0  0  0
 16108  1  0  0  0  0
 17 18  1  0  0  0  0
 17109  1  0  0  0  0
 17110  1  0  0  0  0
 18 19  1  0  0  0  0
 18111  1  0  0  0  0
 18112  1  0  0  0  0
 19 20  1  0  0  0  0
 19113  1  0  0  0  0
 19114  1  0  0  0  0
 20 21  1  0  0  0  0
 20115  1  0  0  0  0
 20116  1  0  0  0  0
 21 22  1  0  0  0  0
 21117  1  0  0  0  0
 21118  1  0  0  0  0
 22 23  1  0  0  0  0
 22119  1  0  0  0  0
 22120  1  0  0  0  0
 23 24  1  0  0  0  0
 23121  1  0  0  0  0
 24 25  2  0  0  0  0
 24 26  1  0  0  0  0
 26 27  1  0  0  0  0
 26 88  2  0  0  0  0
 27 28  2  0  0  0  0
 27122  1  0  0  0  0
 28 29  1  0  0  0  0
 28123  1  0  0  0  0
 29 30  1  0  0  0  0
 29 87  2  0  0  0  0
 30 31  1  0  0  0  0
 30 81  2  0  0  0  0
 31 32  2  0  0  0  0
 31 86  1  0  0  0  0
 32 33  1  0  0  0  0
 33 34  2  0  0  0  0
 33 85  1  0  0  0  0
 34 35  1  0  0  0  0
 34 46  1  0  0  0  0
 35 36  1  0  0  0  0
 35 44  2  0  0  0  0
 36 37  1  0  0  0  0
 36 38  2  0  0  0  0
 38 39  1  0  0  0  0
 38 40  1  0  0  0  0
 40 41  1  0  0  0  0
 40 42  2  0  0  0  0
 42 43  1  0  0  0  0
 42 44  1  0  0  0  0
 44 45  1  0  0  0  0
 46 47  2  0  0  0  0
 46 50  1  0  0  0  0
 47 48  1  0  0  0  0
 47124  1  0  0  0  0
 48 49  2  0  0  0  0
 48125  1  0  0  0  0
 49 50  1  0  0  0  0
 49 51  1  0  0  0  0
 50126  1  0  0  0  0
 51 52  1  0  0  0  0
 51 63  2  0  0  0  0
 52 53  1  0  0  0  0
 52 61  2  0  0  0  0
 53 54  1  0  0  0  0
 53 55  2  0  0  0  0
 55 56  1  0  0  0  0
 55 57  1  0  0  0  0
 57 58  1  0  0  0  0
 57 59  2  0  0  0  0
 59 60  1  0  0  0  0
 59 61  1  0  0  0  0
 61 62  1  0  0  0  0
 63 64  1  0  0  0  0
 63 84  1  0  0  0  0
 64 65  2  0  0  0  0
 65 66  1  0  0  0  0
 65 83  1  0  0  0  0
 66 67  1  0  0  0  0
 66 78  2  0  0  0  0
 67 68  1  0  0  0  0
 67 76  2  0  0  0  0
 68 69  1  0  0  0  0
 68 70  2  0  0  0  0
 70 71  1  0  0  0  0
 70 72  1  0  0  0  0
 72 73  1  0  0  0  0
 72 74  2  0  0  0  0
 74 75  1  0  0  0  0
 74 76  1  0  0  0  0
 76 77  1  0  0  0  0
 78 79  1  0  0  0  0
 78 82  1  0  0  0  0
 79 80  2  0  0  0  0
 79127  1  0  0  0  0
 80 81  1  0  0  0  0
 80128  1  0  0  0  0
 81 82  1  0  0  0  0
 82129  1  0  0  0  0
 83 84  2  0  0  0  0
 83130  1  0  0  0  0
 84131  1  0  0  0  0
 85 86  2  0  0  0  0
 85132  1  0  0  0  0
 86133  1  0  0  0  0
 87 88  1  0  0  0  0
 87134  1  0  0  0  0
 88135  1  0  0  0  0
 89 90  1  0  0  0  0
 89136  1  0  0  0  0
 89137  1  0  0  0  0
 90138  1  0  0  0  0
 90139  1  0  0  0  0
M  CHG  1   8   1
M  END
$$$$
