0_1_5433
 OpenBabel04152301373D

125134  0  0  1  0  0  0  0  0999 V2000
    1.2052   -0.2320    0.0237 C   0  0  0  0  0  0  0  0  0  0  0  0
    0.9022   -1.4356   -1.2509 S   0  0  0  0  0  0  0  0  0  0  0  0
    2.0890   -2.2669   -1.3495 O   0  0  0  0  0  0  0  0  0  0  0  0
   -0.3835   -2.0513   -0.9780 O   0  0  0  0  0  0  0  0  0  0  0  0
    0.7709   -0.5412   -2.7672 C   0  0  0  0  0  0  0  0  0  0  0  0
   -0.0179    0.7174   -2.6116 C   0  0  0  0  0  0  0  0  0  0  0  0
    0.4953    1.7527   -2.1887 O   0  0  0  0  0  0  0  0  0  0  0  0
   -1.3209    0.6765   -3.0991 N   0  0  0  0  0  0  0  0  0  0  0  0
   -2.3849    0.3719   -2.1467 C   0  0  0  0  0  0  0  0  0  0  0  0
   -3.7166    0.1762   -2.8667 C   0  0  0  0  0  0  0  0  0  0  0  0
   -4.0624    1.3546   -3.6117 O   0  0  0  0  0  0  0  0  0  0  0  0
   -3.0781    1.6445   -4.6279 C   0  0  1  0  0  0  0  0  0  0  0  0
   -3.4905    2.9647   -5.2867 C   0  0  0  0  0  0  0  0  0  0  0  0
   -2.5213    3.4214   -6.3551 C   0  0  0  0  0  0  0  0  0  0  0  0
   -2.5373    2.9180   -7.4787 O   0  0  0  0  0  0  0  0  0  0  0  0
   -1.5879    4.3814   -6.0909 N   0  0  0  0  0  0  0  0  0  0  0  0
   -1.2444    5.0474   -4.8439 C   0  0  0  0  0  0  0  0  0  0  0  0
    0.0669    4.5058   -4.2672 C   0  0  0  0  0  0  0  0  0  0  0  0
    1.3292    5.1344   -4.8304 C   0  0  0  0  0  0  0  0  0  0  0  0
    1.5633    6.5564   -4.3629 C   0  0  0  0  0  0  0  0  0  0  0  0
    1.7595    6.6721   -2.9221 N   0  0  0  0  0  0  0  0  0  0  0  0
    2.7046    7.4093   -2.2444 C   0  0  0  0  0  0  0  0  0  0  0  0
    2.8033    7.3518   -1.0270 O   0  0  0  0  0  0  0  0  0  0  0  0
    3.6384    8.2354   -3.0335 C   0  0  0  0  0  0  0  0  0  0  0  0
    5.0124    8.0768   -2.8430 C   0  0  0  0  0  0  0  0  0  0  0  0
    5.8991    8.6803   -3.7352 C   0  0  0  0  0  0  0  0  0  0  0  0
    5.4078    9.3860   -4.8445 C   0  0  0  0  0  0  0  0  0  0  0  0
    6.3052    9.9846   -5.8620 C   0  0  0  0  0  0  0  0  0  0  0  0
    6.2549   11.4690   -6.0904 C   0  0  0  0  0  0  0  0  0  0  0  0
    6.7900   12.1819   -7.0469 N   0  0  0  0  0  0  0  0  0  0  0  0
    6.3421   13.4792   -6.8391 C   0  0  0  0  0  0  0  0  0  0  0  0
    6.6679   14.6026   -7.5196 C   0  0  0  0  0  0  0  0  0  0  0  0
    6.0082   15.8803   -7.0937 C   0  0  0  0  0  0  0  0  0  0  0  0
    6.3127   16.4920   -5.8678 C   0  0  0  0  0  0  0  0  0  0  0  0
    7.2003   15.9281   -5.0346 F   0  0  0  0  0  0  0  0  0  0  0  0
    5.6624   17.6552   -5.4665 C   0  0  0  0  0  0  0  0  0  0  0  0
    5.9230   18.1846   -4.2632 F   0  0  0  0  0  0  0  0  0  0  0  0
    4.7279   18.2521   -6.2989 C   0  0  0  0  0  0  0  0  0  0  0  0
    4.1013   19.3711   -5.9104 F   0  0  0  0  0  0  0  0  0  0  0  0
    4.4340   17.6820   -7.5286 C   0  0  0  0  0  0  0  0  0  0  0  0
    3.5375   18.2633   -8.3377 F   0  0  0  0  0  0  0  0  0  0  0  0
    5.0590   16.5006   -7.9191 C   0  0  0  0  0  0  0  0  0  0  0  0
    4.7330   15.9587   -9.1021 F   0  0  0  0  0  0  0  0  0  0  0  0
    7.6092   14.6374   -8.6042 C   0  0  0  0  0  0  0  0  0  0  0  0
    8.0658   15.7303   -9.3175 C   0  0  0  0  0  0  0  0  0  0  0  0
    8.9719   15.2730  -10.2801 C   0  0  0  0  0  0  0  0  0  0  0  0
    9.1035   13.8999  -10.1430 C   0  0  0  0  0  0  0  0  0  0  0  0
    8.2533   13.5215   -9.1188 N   0  0  0  0  0  0  0  0  0  0  0  0
    9.9420   13.0013  -10.8932 C   0  0  0  0  0  0  0  0  0  0  0  0
   10.8266   13.6049  -11.9406 C   0  0  0  0  0  0  0  0  0  0  0  0
   10.5244   13.5012  -13.3048 C   0  0  0  0  0  0  0  0  0  0  0  0
    9.4682   12.7800  -13.7093 F   0  0  0  0  0  0  0  0  0  0  0  0
   11.3234   14.1228  -14.2601 C   0  0  0  0  0  0  0  0  0  0  0  0
   11.0341   13.9895  -15.5618 F   0  0  0  0  0  0  0  0  0  0  0  0
   12.4205   14.8765  -13.8677 C   0  0  0  0  0  0  0  0  0  0  0  0
   13.1795   15.4861  -14.7886 F   0  0  0  0  0  0  0  0  0  0  0  0
   12.7327   14.9962  -12.5218 C   0  0  0  0  0  0  0  0  0  0  0  0
   13.7851   15.7332  -12.1407 F   0  0  0  0  0  0  0  0  0  0  0  0
   11.9498   14.3574  -11.5657 C   0  0  0  0  0  0  0  0  0  0  0  0
   12.2739   14.4888  -10.2706 F   0  0  0  0  0  0  0  0  0  0  0  0
   10.0092   11.6595  -10.7175 C   0  0  0  0  0  0  0  0  0  0  0  0
    9.3411   10.8650   -9.7965 N   0  0  0  0  0  0  0  0  0  0  0  0
    9.7379    9.6366  -10.0247 C   0  0  0  0  0  0  0  0  0  0  0  0
    9.3599    8.3684   -9.3076 C   0  0  0  0  0  0  0  0  0  0  0  0
    9.9417    7.0630   -9.7124 C   0  0  0  0  0  0  0  0  0  0  0  0
   11.2940    6.7814   -9.4705 C   0  0  0  0  0  0  0  0  0  0  0  0
   12.0747    7.7033   -8.8880 F   0  0  0  0  0  0  0  0  0  0  0  0
   11.8584    5.5686   -9.8593 C   0  0  0  0  0  0  0  0  0  0  0  0
   13.1624    5.3416   -9.6507 F   0  0  0  0  0  0  0  0  0  0  0  0
   11.0760    4.6035  -10.4747 C   0  0  0  0  0  0  0  0  0  0  0  0
   11.6182    3.4359  -10.8464 F   0  0  0  0  0  0  0  0  0  0  0  0
    9.7321    4.8535  -10.7105 C   0  0  0  0  0  0  0  0  0  0  0  0
    8.9706    3.9185  -11.2949 F   0  0  0  0  0  0  0  0  0  0  0  0
    9.1719    6.0758  -10.3427 C   0  0  0  0  0  0  0  0  0  0  0  0
    7.8725    6.2944  -10.5918 F   0  0  0  0  0  0  0  0  0  0  0  0
    8.5128    8.4352   -8.2630 C   0  0  0  0  0  0  0  0  0  0  0  0
    8.0347    7.3000   -7.4801 C   0  0  0  0  0  0  0  0  0  0  0  0
    7.1709    7.7421   -6.5509 C   0  0  0  0  0  0  0  0  0  0  0  0
    7.0701    9.1994   -6.6443 C   0  0  0  0  0  0  0  0  0  0  0  0
    7.8987    9.5219   -7.6898 N   0  0  0  0  0  0  0  0  0  0  0  0
   10.6811    9.5093  -11.1448 C   0  0  0  0  0  0  0  0  0  0  0  0
   10.8396   10.7747  -11.5084 C   0  0  0  0  0  0  0  0  0  0  0  0
    5.4499   13.4473   -5.7020 C   0  0  0  0  0  0  0  0  0  0  0  0
    5.4451   12.2496   -5.1399 C   0  0  0  0  0  0  0  0  0  0  0  0
    4.0228    9.5685   -4.9902 C   0  0  0  0  0  0  0  0  0  0  0  0
    3.1464    9.0632   -4.0436 C   0  0  0  0  0  0  0  0  0  0  0  0
   -1.6830    1.7563   -4.0010 C   0  0  0  0  0  0  0  0  0  0  0  0
    1.2931   -0.7271    0.9682 H   0  0  0  0  0  0  0  0  0  0  0  0
    0.3918    0.4623    0.0593 H   0  0  0  0  0  0  0  0  0  0  0  0
    2.1129    0.2927   -0.1898 H   0  0  0  0  0  0  0  0  0  0  0  0
    0.2895   -1.1623   -3.4934 H   0  0  0  0  0  0  0  0  0  0  0  0
    1.7592   -0.2739   -3.0783 H   0  0  0  0  0  0  0  0  0  0  0  0
   -2.4768    1.1811   -1.4527 H   0  0  0  0  0  0  0  0  0  0  0  0
   -2.1365   -0.5330   -1.6326 H   0  0  0  0  0  0  0  0  0  0  0  0
   -4.4815   -0.0215   -2.1451 H   0  0  0  0  0  0  0  0  0  0  0  0
   -3.6268   -0.6477   -3.5435 H   0  0  0  0  0  0  0  0  0  0  0  0
   -3.0343    0.8616   -5.3559 H   0  0  0  0  0  0  0  0  0  0  0  0
   -3.5454    3.7202   -4.5309 H   0  0  0  0  0  0  0  0  0  0  0  0
   -4.4362    2.8037   -5.7607 H   0  0  0  0  0  0  0  0  0  0  0  0
   -1.0614    4.6702   -6.8711 H   0  0  0  0  0  0  0  0  0  0  0  0
   -2.0297    4.8868   -4.1351 H   0  0  0  0  0  0  0  0  0  0  0  0
   -1.1208    6.0917   -5.0415 H   0  0  0  0  0  0  0  0  0  0  0  0
    0.1051    3.4545   -4.4624 H   0  0  0  0  0  0  0  0  0  0  0  0
    0.0548    4.7468   -3.2248 H   0  0  0  0  0  0  0  0  0  0  0  0
    1.2575    5.1374   -5.8980 H   0  0  0  0  0  0  0  0  0  0  0  0
    2.1533    4.5500   -4.4778 H   0  0  0  0  0  0  0  0  0  0  0  0
    0.7142    7.1469   -4.6373 H   0  0  0  0  0  0  0  0  0  0  0  0
    2.4635    6.8965   -4.8307 H   0  0  0  0  0  0  0  0  0  0  0  0
    1.1355    6.1564   -2.3618 H   0  0  0  0  0  0  0  0  0  0  0  0
    5.3682    7.5192   -2.0508 H   0  0  0  0  0  0  0  0  0  0  0  0
    6.9167    8.6078   -3.5794 H   0  0  0  0  0  0  0  0  0  0  0  0
    7.7868   16.7123   -9.1661 H   0  0  0  0  0  0  0  0  0  0  0  0
    9.4601   15.8591  -10.9752 H   0  0  0  0  0  0  0  0  0  0  0  0
    8.1247   12.5981   -8.8025 H   0  0  0  0  0  0  0  0  0  0  0  0
    8.3149    6.3164   -7.6180 H   0  0  0  0  0  0  0  0  0  0  0  0
    6.6600    7.1489   -5.8786 H   0  0  0  0  0  0  0  0  0  0  0  0
    8.0397   10.4456   -7.9999 H   0  0  0  0  0  0  0  0  0  0  0  0
   11.1079    8.6585  -11.5436 H   0  0  0  0  0  0  0  0  0  0  0  0
   11.4739   11.0890  -12.2593 H   0  0  0  0  0  0  0  0  0  0  0  0
    4.8918   14.2506   -5.3730 H   0  0  0  0  0  0  0  0  0  0  0  0
    4.9925   11.9428   -4.2647 H   0  0  0  0  0  0  0  0  0  0  0  0
    3.6560   10.0818   -5.8069 H   0  0  0  0  0  0  0  0  0  0  0  0
    2.1419    9.2961   -4.0849 H   0  0  0  0  0  0  0  0  0  0  0  0
   -0.9649    1.7800   -4.7939 H   0  0  0  0  0  0  0  0  0  0  0  0
   -1.6949    2.6467   -3.4078 H   0  0  0  0  0  0  0  0  0  0  0  0
  1  2  1  0  0  0  0
  1 88  1  0  0  0  0
  1 89  1  0  0  0  0
  1 90  1  0  0  0  0
  2  3  2  0  0  0  0
  2  4  2  0  0  0  0
  2  5  1  0  0  0  0
  5  6  1  0  0  0  0
  5 91  1  0  0  0  0
  5 92  1  0  0  0  0
  6  7  2  0  0  0  0
  6  8  1  0  0  0  0
  8  9  1  0  0  0  0
  8 87  1  0  0  0  0
  9 10  1  0  0  0  0
  9 93  1  0  0  0  0
  9 94  1  0  0  0  0
 10 11  1  0  0  0  0
 10 95  1  0  0  0  0
 10 96  1  0  0  0  0
 11 12  1  0  0  0  0
 12 13  1  0  0  0  0
 12 87  1  0  0  0  0
 12 97  1  6  0  0  0
 13 14  1  0  0  0  0
 13 98  1  0  0  0  0
 13 99  1  0  0  0  0
 14 15  2  0  0  0  0
 14 16  1  0  0  0  0
 16 17  1  0  0  0  0
 16100  1  0  0  0  0
 17 18  1  0  0  0  0
 17101  1  0  0  0  0
 17102  1  0  0  0  0
 18 19  1  0  0  0  0
 18103  1  0  0  0  0
 18104  1  0  0  0  0
 19 20  1  0  0  0  0
 19105  1  0  0  0  0
 19106  1  0  0  0  0
 20 21  1  0  0  0  0
 20107  1  0  0  0  0
 20108  1  0  0  0  0
 21 22  1  0  0  0  0
 21109  1  0  0  0  0
 22 23  2  0  0  0  0
 22 24  1  0  0  0  0
 24 25  1  0  0  0  0
 24 86  2  0  0  0  0
 25 26  2  0  0  0  0
 25110  1  0  0  0  0
 26 27  1  0  0  0  0
 26111  1  0  0  0  0
 27 28  1  0  0  0  0
 27 85  2  0  0  0  0
 28 29  1  0  0  0  0
 28 79  2  0  0  0  0
 29 30  2  0  0  0  0
 29 84  1  0  0  0  0
 30 31  1  0  0  0  0
 31 32  2  0  0  0  0
 31 83  1  0  0  0  0
 32 33  1  0  0  0  0
 32 44  1  0  0  0  0
 33 34  1  0  0  0  0
 33 42  2  0  0  0  0
 34 35  1  0  0  0  0
 34 36  2  0  0  0  0
 36 37  1  0  0  0  0
 36 38  1  0  0  0  0
 38 39  1  0  0  0  0
 38 40  2  0  0  0  0
 40 41  1  0  0  0  0
 40 42  1  0  0  0  0
 42 43  1  0  0  0  0
 44 45  2  0  0  0  0
 44 48  1  0  0  0  0
 45 46  1  0  0  0  0
 45112  1  0  0  0  0
 46 47  2  0  0  0  0
 46113  1  0  0  0  0
 47 48  1  0  0  0  0
 47 49  1  0  0  0  0
 48114  1  0  0  0  0
 49 50  1  0  0  0  0
 49 61  2  0  0  0  0
 50 51  1  0  0  0  0
 50 59  2  0  0  0  0
 51 52  1  0  0  0  0
 51 53  2  0  0  0  0
 53 54  1  0  0  0  0
 53 55  1  0  0  0  0
 55 56  1  0  0  0  0
 55 57  2  0  0  0  0
 57 58  1  0  0  0  0
 57 59  1  0  0  0  0
 59 60  1  0  0  0  0
 61 62  1  0  0  0  0
 61 82  1  0  0  0  0
 62 63  2  0  0  0  0
 63 64  1  0  0  0  0
 63 81  1  0  0  0  0
 64 65  1  0  0  0  0
 64 76  2  0  0  0  0
 65 66  1  0  0  0  0
 65 74  2  0  0  0  0
 66 67  1  0  0  0  0
 66 68  2  0  0  0  0
 68 69  1  0  0  0  0
 68 70  1  0  0  0  0
 70 71  1  0  0  0  0
 70 72  2  0  0  0  0
 72 73  1  0  0  0  0
 72 74  1  0  0  0  0
 74 75  1  0  0  0  0
 76 77  1  0  0  0  0
 76 80  1  0  0  0  0
 77 78  2  0  0  0  0
 77115  1  0  0  0  0
 78 79  1  0  0  0  0
 78116  1  0  0  0  0
 79 80  1  0  0  0  0
 80117  1  0  0  0  0
 81 82  2  0  0  0  0
 81118  1  0  0  0  0
 82119  1  0  0  0  0
 83 84  2  0  0  0  0
 83120  1  0  0  0  0
 84121  1  0  0  0  0
 85 86  1  0  0  0  0
 85122  1  0  0  0  0
 86123  1  0  0  0  0
 87124  1  0  0  0  0
 87125  1  0  0  0  0
M  END
$$$$
