0_1_592
 OpenBabel04152301363D

132142  0  0  1  0  0  0  0  0999 V2000
    4.0758   -0.4009   -3.4605 O   0  0  0  0  0  0  0  0  0  0  0  0
    4.5101   -0.4674   -2.3141 C   0  0  0  0  0  0  0  0  0  0  0  0
    3.6860   -1.0339   -1.1718 C   0  0  0  0  0  0  0  0  0  0  0  0
    4.3878   -1.7783   -0.0173 C   0  0  1  0  0  0  0  0  0  0  0  0
    3.8651   -3.1927    0.3110 C   0  0  0  0  0  0  0  0  0  0  0  0
    4.4463   -4.2857   -0.5121 N   0  0  0  0  0  0  0  0  0  0  0  0
    3.8925   -4.6371   -2.0730 S   0  0  0  0  0  0  0  0  0  0  0  0
    3.9992   -3.4278   -2.8514 O   0  0  0  0  0  0  0  0  0  0  0  0
    4.5911   -5.8285   -2.4922 O   0  0  0  0  0  0  0  0  0  0  0  0
    2.2661   -5.0270   -1.8950 N   0  0  0  0  0  0  0  0  0  0  0  0
    1.9526   -6.3495   -1.3196 C   0  0  0  0  0  0  0  0  0  0  0  0
    0.5276   -6.7653   -1.6755 C   0  0  0  0  0  0  0  0  0  0  0  0
   -0.4650   -5.7140   -1.2079 C   0  0  0  0  0  0  0  0  0  0  0  0
   -0.1680   -4.4069   -1.9248 C   0  0  0  0  0  0  0  0  0  0  0  0
    1.2690   -3.9553   -1.6992 C   0  0  0  0  0  0  0  0  0  0  0  0
    5.9456   -4.1790   -0.4226 C   0  0  0  0  0  0  0  0  0  0  0  0
    6.4213   -2.7763   -0.8166 C   0  0  0  0  0  0  0  0  0  0  0  0
    5.8245   -1.7390   -0.0159 O   0  0  0  0  0  0  0  0  0  0  0  0
    5.7100    0.0875   -1.9421 N   0  0  0  0  0  0  0  0  0  0  0  0
    6.6754    0.5628   -2.9049 C   0  0  0  0  0  0  0  0  0  0  0  0
    6.3168    1.9141   -3.5152 C   0  0  0  0  0  0  0  0  0  0  0  0
    5.9695    3.0025   -2.4994 C   0  0  0  0  0  0  0  0  0  0  0  0
    6.9900    3.1993   -1.3862 C   0  0  0  0  0  0  0  0  0  0  0  0
    8.2918    3.6177   -1.8828 N   0  0  0  0  0  0  0  0  0  0  0  0
    9.0582    4.6940   -1.5089 C   0  0  0  0  0  0  0  0  0  0  0  0
   10.0660    4.9898   -2.1425 O   0  0  0  0  0  0  0  0  0  0  0  0
    8.6488    5.5184   -0.3523 C   0  0  0  0  0  0  0  0  0  0  0  0
    8.6565    6.9092   -0.4796 C   0  0  0  0  0  0  0  0  0  0  0  0
    8.1971    7.7018    0.5739 C   0  0  0  0  0  0  0  0  0  0  0  0
    7.6848    7.1080    1.7396 C   0  0  0  0  0  0  0  0  0  0  0  0
    7.1125    7.9343    2.8340 C   0  0  0  0  0  0  0  0  0  0  0  0
    7.7445    7.9279    4.1982 C   0  0  0  0  0  0  0  0  0  0  0  0
    7.3578    8.5323    5.2939 N   0  0  0  0  0  0  0  0  0  0  0  0
    8.2744    8.1667    6.2708 C   0  0  0  0  0  0  0  0  0  0  0  0
    8.3548    8.5888    7.5556 C   0  0  0  0  0  0  0  0  0  0  0  0
    9.4736    8.0432    8.3980 C   0  0  0  0  0  0  0  0  0  0  0  0
   10.8142    8.3776    8.1493 C   0  0  0  0  0  0  0  0  0  0  0  0
   11.1325    9.1661    7.1115 F   0  0  0  0  0  0  0  0  0  0  0  0
   11.8403    7.8684    8.9413 C   0  0  0  0  0  0  0  0  0  0  0  0
   13.1160    8.1576    8.6494 F   0  0  0  0  0  0  0  0  0  0  0  0
   11.5454    7.0512   10.0216 C   0  0  0  0  0  0  0  0  0  0  0  0
   12.5330    6.5692   10.7885 F   0  0  0  0  0  0  0  0  0  0  0  0
   10.2267    6.7277   10.3022 C   0  0  0  0  0  0  0  0  0  0  0  0
    9.9384    5.9508   11.3556 F   0  0  0  0  0  0  0  0  0  0  0  0
    9.2011    7.2060    9.4906 C   0  0  0  0  0  0  0  0  0  0  0  0
    7.9379    6.8586    9.7792 F   0  0  0  0  0  0  0  0  0  0  0  0
    7.4395    9.5223    8.1591 C   0  0  0  0  0  0  0  0  0  0  0  0
    7.4618   10.0469    9.4395 C   0  0  0  0  0  0  0  0  0  0  0  0
    6.3359   10.8607    9.5989 C   0  0  0  0  0  0  0  0  0  0  0  0
    5.6483   10.8991    8.3967 C   0  0  0  0  0  0  0  0  0  0  0  0
    6.3319   10.0663    7.5243 N   0  0  0  0  0  0  0  0  0  0  0  0
    4.4574   11.6413    8.0678 C   0  0  0  0  0  0  0  0  0  0  0  0
    3.8631   12.5190    9.1333 C   0  0  0  0  0  0  0  0  0  0  0  0
    2.6320   12.2219    9.7366 C   0  0  0  0  0  0  0  0  0  0  0  0
    1.9217   11.1574    9.3336 F   0  0  0  0  0  0  0  0  0  0  0  0
    2.1039   13.0438   10.7291 C   0  0  0  0  0  0  0  0  0  0  0  0
    0.9006   12.7704   11.2522 F   0  0  0  0  0  0  0  0  0  0  0  0
    2.8133   14.1523   11.1668 C   0  0  0  0  0  0  0  0  0  0  0  0
    2.3077   14.9361   12.1290 F   0  0  0  0  0  0  0  0  0  0  0  0
    4.0432   14.4518   10.6020 C   0  0  0  0  0  0  0  0  0  0  0  0
    4.7391   15.5118   11.0357 F   0  0  0  0  0  0  0  0  0  0  0  0
    4.5568   13.6532    9.5843 C   0  0  0  0  0  0  0  0  0  0  0  0
    5.7425   13.9791    9.0478 F   0  0  0  0  0  0  0  0  0  0  0  0
    3.8469   11.6298    6.8571 C   0  0  0  0  0  0  0  0  0  0  0  0
    4.2050   10.9435    5.7042 N   0  0  0  0  0  0  0  0  0  0  0  0
    3.2961   11.2432    4.8083 C   0  0  0  0  0  0  0  0  0  0  0  0
    3.1991   10.8108    3.3692 C   0  0  0  0  0  0  0  0  0  0  0  0
    2.0727   11.2660    2.5106 C   0  0  0  0  0  0  0  0  0  0  0  0
    1.9351   12.6143    2.1516 C   0  0  0  0  0  0  0  0  0  0  0  0
    2.8240   13.5179    2.5903 F   0  0  0  0  0  0  0  0  0  0  0  0
    0.8578   13.0491    1.3819 C   0  0  0  0  0  0  0  0  0  0  0  0
    0.7207   14.3523    1.1016 F   0  0  0  0  0  0  0  0  0  0  0  0
   -0.0828   12.1391    0.9240 C   0  0  0  0  0  0  0  0  0  0  0  0
   -1.1174   12.5572    0.1824 F   0  0  0  0  0  0  0  0  0  0  0  0
    0.0453   10.7965    1.2449 C   0  0  0  0  0  0  0  0  0  0  0  0
   -0.8520    9.9107    0.7914 F   0  0  0  0  0  0  0  0  0  0  0  0
    1.1031   10.3663    2.0431 C   0  0  0  0  0  0  0  0  0  0  0  0
    1.1892    9.0642    2.3531 F   0  0  0  0  0  0  0  0  0  0  0  0
    4.1538   10.0087    2.8597 C   0  0  0  0  0  0  0  0  0  0  0  0
    4.1998    9.5156    1.4866 C   0  0  0  0  0  0  0  0  0  0  0  0
    5.2567    8.6997    1.3491 C   0  0  0  0  0  0  0  0  0  0  0  0
    5.9904    8.6473    2.6145 C   0  0  0  0  0  0  0  0  0  0  0  0
    5.2638    9.4572    3.4523 N   0  0  0  0  0  0  0  0  0  0  0  0
    2.2371   12.1326    5.3050 C   0  0  0  0  0  0  0  0  0  0  0  0
    2.6465   12.3753    6.5418 C   0  0  0  0  0  0  0  0  0  0  0  0
    9.1978    7.2374    5.6574 C   0  0  0  0  0  0  0  0  0  0  0  0
    8.9584    7.1127    4.3607 C   0  0  0  0  0  0  0  0  0  0  0  0
    7.7137    5.7104    1.8641 C   0  0  0  0  0  0  0  0  0  0  0  0
    8.2465    4.9237    0.8467 C   0  0  0  0  0  0  0  0  0  0  0  0
    2.9876   -1.7198   -1.6038 H   0  0  0  0  0  0  0  0  0  0  0  0
    3.2852   -0.1621   -0.6982 H   0  0  0  0  0  0  0  0  0  0  0  0
    4.0741   -1.1591    0.7970 H   0  0  0  0  0  0  0  0  0  0  0  0
    2.8049   -3.1964    0.1662 H   0  0  0  0  0  0  0  0  0  0  0  0
    4.1575   -3.3919    1.3208 H   0  0  0  0  0  0  0  0  0  0  0  0
    2.0497   -6.3020   -0.2551 H   0  0  0  0  0  0  0  0  0  0  0  0
    2.6332   -7.0709   -1.7211 H   0  0  0  0  0  0  0  0  0  0  0  0
    0.3035   -7.6974   -1.2003 H   0  0  0  0  0  0  0  0  0  0  0  0
    0.4511   -6.8657   -2.7380 H   0  0  0  0  0  0  0  0  0  0  0  0
   -0.3699   -5.5744   -0.1513 H   0  0  0  0  0  0  0  0  0  0  0  0
   -1.4625   -6.0317   -1.4294 H   0  0  0  0  0  0  0  0  0  0  0  0
   -0.8307   -3.6514   -1.5574 H   0  0  0  0  0  0  0  0  0  0  0  0
   -0.3082   -4.5623   -2.9741 H   0  0  0  0  0  0  0  0  0  0  0  0
    1.4857   -3.1630   -2.3849 H   0  0  0  0  0  0  0  0  0  0  0  0
    1.3419   -3.6432   -0.6783 H   0  0  0  0  0  0  0  0  0  0  0  0
    6.3874   -4.8964   -1.0822 H   0  0  0  0  0  0  0  0  0  0  0  0
    6.2409   -4.3675    0.5884 H   0  0  0  0  0  0  0  0  0  0  0  0
    6.1681   -2.6050   -1.8420 H   0  0  0  0  0  0  0  0  0  0  0  0
    7.4786   -2.7382   -0.6570 H   0  0  0  0  0  0  0  0  0  0  0  0
    5.9197    0.1641   -0.9833 H   0  0  0  0  0  0  0  0  0  0  0  0
    6.7478   -0.1561   -3.6942 H   0  0  0  0  0  0  0  0  0  0  0  0
    7.6010    0.6903   -2.3835 H   0  0  0  0  0  0  0  0  0  0  0  0
    5.4722    1.7760   -4.1575 H   0  0  0  0  0  0  0  0  0  0  0  0
    7.1895    2.2524   -4.0337 H   0  0  0  0  0  0  0  0  0  0  0  0
    5.0329    2.7482   -2.0488 H   0  0  0  0  0  0  0  0  0  0  0  0
    5.9449    3.9221   -3.0459 H   0  0  0  0  0  0  0  0  0  0  0  0
    7.1056    2.2743   -0.8608 H   0  0  0  0  0  0  0  0  0  0  0  0
    6.6241    3.9756   -0.7471 H   0  0  0  0  0  0  0  0  0  0  0  0
    8.6782    3.0483   -2.5869 H   0  0  0  0  0  0  0  0  0  0  0  0
    9.0000    7.3487   -1.3479 H   0  0  0  0  0  0  0  0  0  0  0  0
    8.2340    8.7302    0.4959 H   0  0  0  0  0  0  0  0  0  0  0  0
    8.1849    9.8682   10.1538 H   0  0  0  0  0  0  0  0  0  0  0  0
    6.0632   11.3500   10.4656 H   0  0  0  0  0  0  0  0  0  0  0  0
    6.0703    9.8873    6.5922 H   0  0  0  0  0  0  0  0  0  0  0  0
    3.5277    9.7557    0.7412 H   0  0  0  0  0  0  0  0  0  0  0  0
    5.5114    8.1905    0.4884 H   0  0  0  0  0  0  0  0  0  0  0  0
    5.5146    9.6266    4.3891 H   0  0  0  0  0  0  0  0  0  0  0  0
    1.3951   12.4778    4.8182 H   0  0  0  0  0  0  0  0  0  0  0  0
    2.1701   13.0146    7.1971 H   0  0  0  0  0  0  0  0  0  0  0  0
    9.9451    6.7372    6.1637 H   0  0  0  0  0  0  0  0  0  0  0  0
    9.4858    6.5821    3.6498 H   0  0  0  0  0  0  0  0  0  0  0  0
    7.3378    5.2633    2.7149 H   0  0  0  0  0  0  0  0  0  0  0  0
    8.3441    3.9047    0.9774 H   0  0  0  0  0  0  0  0  0  0  0  0
  1  2  2  0  0  0  0
  2  3  1  0  0  0  0
  2 19  1  0  0  0  0
  3 90  1  0  0  0  0
  3 91  1  0  0  0  0
  4  5  1  0  0  0  0
  4 18  1  0  0  0  0
  4  3  1  0  0  0  0
  4 92  1  1  0  0  0
  5  6  1  0  0  0  0
  5 93  1  0  0  0  0
  5 94  1  0  0  0  0
  6  7  1  0  0  0  0
  6 16  1  0  0  0  0
  7  8  2  0  0  0  0
  7  9  2  0  0  0  0
  7 10  1  0  0  0  0
 10 11  1  0  0  0  0
 10 15  1  0  0  0  0
 11 12  1  0  0  0  0
 11 95  1  0  0  0  0
 11 96  1  0  0  0  0
 12 13  1  0  0  0  0
 12 97  1  0  0  0  0
 12 98  1  0  0  0  0
 13 14  1  0  0  0  0
 13 99  1  0  0  0  0
 13100  1  0  0  0  0
 14 15  1  0  0  0  0
 14101  1  0  0  0  0
 14102  1  0  0  0  0
 15103  1  0  0  0  0
 15104  1  0  0  0  0
 16 17  1  0  0  0  0
 16105  1  0  0  0  0
 16106  1  0  0  0  0
 17 18  1  0  0  0  0
 17107  1  0  0  0  0
 17108  1  0  0  0  0
 19 20  1  0  0  0  0
 19109  1  0  0  0  0
 20 21  1  0  0  0  0
 20110  1  0  0  0  0
 20111  1  0  0  0  0
 21 22  1  0  0  0  0
 21112  1  0  0  0  0
 21113  1  0  0  0  0
 22 23  1  0  0  0  0
 22114  1  0  0  0  0
 22115  1  0  0  0  0
 23 24  1  0  0  0  0
 23116  1  0  0  0  0
 23117  1  0  0  0  0
 24 25  1  0  0  0  0
 24118  1  0  0  0  0
 25 26  2  0  0  0  0
 25 27  1  0  0  0  0
 27 28  1  0  0  0  0
 27 89  2  0  0  0  0
 28 29  2  0  0  0  0
 28119  1  0  0  0  0
 29 30  1  0  0  0  0
 29120  1  0  0  0  0
 30 31  1  0  0  0  0
 30 88  2  0  0  0  0
 31 32  1  0  0  0  0
 31 82  2  0  0  0  0
 32 33  2  0  0  0  0
 32 87  1  0  0  0  0
 33 34  1  0  0  0  0
 34 35  2  0  0  0  0
 34 86  1  0  0  0  0
 35 36  1  0  0  0  0
 35 47  1  0  0  0  0
 36 37  1  0  0  0  0
 36 45  2  0  0  0  0
 37 38  1  0  0  0  0
 37 39  2  0  0  0  0
 39 40  1  0  0  0  0
 39 41  1  0  0  0  0
 41 42  1  0  0  0  0
 41 43  2  0  0  0  0
 43 44  1  0  0  0  0
 43 45  1  0  0  0  0
 45 46  1  0  0  0  0
 47 48  2  0  0  0  0
 47 51  1  0  0  0  0
 48 49  1  0  0  0  0
 48121  1  0  0  0  0
 49 50  2  0  0  0  0
 49122  1  0  0  0  0
 50 51  1  0  0  0  0
 50 52  1  0  0  0  0
 51123  1  0  0  0  0
 52 53  1  0  0  0  0
 52 64  2  0  0  0  0
 53 54  1  0  0  0  0
 53 62  2  0  0  0  0
 54 55  1  0  0  0  0
 54 56  2  0  0  0  0
 56 57  1  0  0  0  0
 56 58  1  0  0  0  0
 58 59  1  0  0  0  0
 58 60  2  0  0  0  0
 60 61  1  0  0  0  0
 60 62  1  0  0  0  0
 62 63  1  0  0  0  0
 64 65  1  0  0  0  0
 64 85  1  0  0  0  0
 65 66  2  0  0  0  0
 66 67  1  0  0  0  0
 66 84  1  0  0  0  0
 67 68  1  0  0  0  0
 67 79  2  0  0  0  0
 68 69  1  0  0  0  0
 68 77  2  0  0  0  0
 69 70  1  0  0  0  0
 69 71  2  0  0  0  0
 71 72  1  0  0  0  0
 71 73  1  0  0  0  0
 73 74  1  0  0  0  0
 73 75  2  0  0  0  0
 75 76  1  0  0  0  0
 75 77  1  0  0  0  0
 77 78  1  0  0  0  0
 79 80  1  0  0  0  0
 79 83  1  0  0  0  0
 80 81  2  0  0  0  0
 80124  1  0  0  0  0
 81 82  1  0  0  0  0
 81125  1  0  0  0  0
 82 83  1  0  0  0  0
 83126  1  0  0  0  0
 84 85  2  0  0  0  0
 84127  1  0  0  0  0
 85128  1  0  0  0  0
 86 87  2  0  0  0  0
 86129  1  0  0  0  0
 87130  1  0  0  0  0
 88 89  1  0  0  0  0
 88131  1  0  0  0  0
 89132  1  0  0  0  0
M  END
$$$$
