0_1_3141
 OpenBabel04152301353D

120131  0  0  0  0  0  0  0  0999 V2000
    1.1815    0.0567    0.0725 O   0  0  0  0  0  0  0  0  0  0  0  0
    2.4048    0.0913   -0.0449 C   0  0  0  0  0  0  0  0  0  0  0  0
    3.1878    0.2028    1.0763 N   0  0  0  0  0  0  0  0  0  0  0  0
    4.6220    0.3999    1.1998 C   0  0  0  0  0  0  0  0  0  0  0  0
    4.9869    1.5844    2.0879 C   0  0  0  0  0  0  0  0  0  0  0  0
    4.4887    1.5131    3.5316 C   0  0  0  0  0  0  0  0  0  0  0  0
    4.8230    0.2297    4.2855 C   0  0  0  0  0  0  0  0  0  0  0  0
    6.2521   -0.0316    4.3563 N   0  0  0  0  0  0  0  0  0  0  0  0
    7.0390   -0.2593    5.4570 C   0  0  0  0  0  0  0  0  0  0  0  0
    8.2471   -0.4509    5.3179 O   0  0  0  0  0  0  0  0  0  0  0  0
    6.4274   -0.2817    6.8058 C   0  0  0  0  0  0  0  0  0  0  0  0
    5.4562   -1.2623    7.0377 C   0  0  0  0  0  0  0  0  0  0  0  0
    4.7964   -1.2913    8.2507 C   0  0  0  0  0  0  0  0  0  0  0  0
    5.1334   -0.3649    9.2391 C   0  0  0  0  0  0  0  0  0  0  0  0
    6.1558    0.6091    9.0756 C   0  0  0  0  0  0  0  0  0  0  0  0
    6.8190    0.6364    7.8203 C   0  0  0  0  0  0  0  0  0  0  0  0
    7.8451    1.5791    7.6304 C   0  0  0  0  0  0  0  0  0  0  0  0
    8.2362    2.4583    8.6418 C   0  0  0  0  0  0  0  0  0  0  0  0
    9.6733    3.6392    8.2073 Br  0  0  0  0  0  0  0  0  0  0  0  0
    7.5988    2.4588    9.8988 C   0  0  0  0  0  0  0  0  0  0  0  0
    7.9752    3.3351   10.9501 C   0  0  0  0  0  0  0  0  0  0  0  0
    7.3300    3.3349   12.1841 C   0  0  0  0  0  0  0  0  0  0  0  0
    6.2844    2.4597   12.4004 C   0  0  0  0  0  0  0  0  0  0  0  0
    5.8997    1.5809   11.3860 C   0  0  0  0  0  0  0  0  0  0  0  0
    6.5370    1.5378   10.1166 C   0  0  0  0  0  0  0  0  0  0  0  0
    3.0077    0.0280   -1.3959 C   0  0  0  0  0  0  0  0  0  0  0  0
    2.3838    0.7210   -2.4390 C   0  0  0  0  0  0  0  0  0  0  0  0
    2.9112    0.6639   -3.7320 C   0  0  0  0  0  0  0  0  0  0  0  0
    4.0854   -0.0602   -3.9866 C   0  0  0  0  0  0  0  0  0  0  0  0
    4.6371   -0.1765   -5.3606 C   0  0  0  0  0  0  0  0  0  0  0  0
    4.6464   -1.5161   -6.0457 C   0  0  0  0  0  0  0  0  0  0  0  0
    5.1624   -1.8552   -7.2003 N   0  0  0  0  0  0  0  0  0  0  0  0
    4.9289   -3.2176   -7.3317 C   0  0  0  0  0  0  0  0  0  0  0  0
    5.2137   -4.0270   -8.3789 C   0  0  0  0  0  0  0  0  0  0  0  0
    4.8441   -5.4757   -8.2575 C   0  0  0  0  0  0  0  0  0  0  0  0
    3.5063   -5.8953   -8.3067 C   0  0  0  0  0  0  0  0  0  0  0  0
    2.5190   -4.9923   -8.4048 F   0  0  0  0  0  0  0  0  0  0  0  0
    3.1757   -7.2448   -8.2207 C   0  0  0  0  0  0  0  0  0  0  0  0
    1.8888   -7.6191   -8.2284 F   0  0  0  0  0  0  0  0  0  0  0  0
    4.1748   -8.2008   -8.1168 C   0  0  0  0  0  0  0  0  0  0  0  0
    3.8552   -9.5003   -8.0453 F   0  0  0  0  0  0  0  0  0  0  0  0
    5.5048   -7.8094   -8.0816 C   0  0  0  0  0  0  0  0  0  0  0  0
    6.4716   -8.7334   -7.9930 F   0  0  0  0  0  0  0  0  0  0  0  0
    5.8377   -6.4587   -8.1394 C   0  0  0  0  0  0  0  0  0  0  0  0
    7.1323   -6.1102   -8.0924 F   0  0  0  0  0  0  0  0  0  0  0  0
    5.8320   -3.5857   -9.5999 C   0  0  0  0  0  0  0  0  0  0  0  0
    6.1272   -4.3238  -10.7324 C   0  0  0  0  0  0  0  0  0  0  0  0
    6.7426   -3.4757  -11.6581 C   0  0  0  0  0  0  0  0  0  0  0  0
    6.7945   -2.2010  -11.1175 C   0  0  0  0  0  0  0  0  0  0  0  0
    6.2397   -2.2843   -9.8511 N   0  0  0  0  0  0  0  0  0  0  0  0
    7.3152   -0.9965  -11.7108 C   0  0  0  0  0  0  0  0  0  0  0  0
    7.8908   -1.1012  -13.0917 C   0  0  0  0  0  0  0  0  0  0  0  0
    9.2747   -1.0598  -13.3114 C   0  0  0  0  0  0  0  0  0  0  0  0
   10.1141   -0.8397  -12.2884 F   0  0  0  0  0  0  0  0  0  0  0  0
    9.7997   -1.2233  -14.5903 C   0  0  0  0  0  0  0  0  0  0  0  0
   11.1240   -1.1511  -14.7830 F   0  0  0  0  0  0  0  0  0  0  0  0
    8.9551   -1.4572  -15.6657 C   0  0  0  0  0  0  0  0  0  0  0  0
    9.4639   -1.6302  -16.8934 F   0  0  0  0  0  0  0  0  0  0  0  0
    7.5834   -1.5093  -15.4691 C   0  0  0  0  0  0  0  0  0  0  0  0
    6.7672   -1.7490  -16.5046 F   0  0  0  0  0  0  0  0  0  0  0  0
    7.0535   -1.3210  -14.1960 C   0  0  0  0  0  0  0  0  0  0  0  0
    5.7229   -1.3768  -14.0353 F   0  0  0  0  0  0  0  0  0  0  0  0
    7.3154    0.2237  -11.1215 C   0  0  0  0  0  0  0  0  0  0  0  0
    6.8349    0.5875   -9.8709 N   0  0  0  0  0  0  0  0  0  0  0  0
    7.0760    1.8700   -9.7507 C   0  0  0  0  0  0  0  0  0  0  0  0
    6.7523    2.7941   -8.6077 C   0  0  0  0  0  0  0  0  0  0  0  0
    7.0669    4.2435   -8.6895 C   0  0  0  0  0  0  0  0  0  0  0  0
    6.3490    5.0821   -9.5534 C   0  0  0  0  0  0  0  0  0  0  0  0
    5.3923    4.5695  -10.3411 F   0  0  0  0  0  0  0  0  0  0  0  0
    6.6320    6.4437   -9.6346 C   0  0  0  0  0  0  0  0  0  0  0  0
    5.9525    7.2169  -10.4924 F   0  0  0  0  0  0  0  0  0  0  0  0
    7.6224    6.9970   -8.8371 C   0  0  0  0  0  0  0  0  0  0  0  0
    7.8882    8.3083   -8.9089 F   0  0  0  0  0  0  0  0  0  0  0  0
    8.3404    6.1881   -7.9689 C   0  0  0  0  0  0  0  0  0  0  0  0
    9.2905    6.7213   -7.1889 F   0  0  0  0  0  0  0  0  0  0  0  0
    8.0741    4.8218   -7.9042 C   0  0  0  0  0  0  0  0  0  0  0  0
    8.7889    4.0616   -7.0620 F   0  0  0  0  0  0  0  0  0  0  0  0
    6.1427    2.3028   -7.5115 C   0  0  0  0  0  0  0  0  0  0  0  0
    5.7721    3.0736   -6.3272 C   0  0  0  0  0  0  0  0  0  0  0  0
    5.2156    2.2505   -5.4232 C   0  0  0  0  0  0  0  0  0  0  0  0
    5.1551    0.9001   -5.9811 C   0  0  0  0  0  0  0  0  0  0  0  0
    5.7327    1.0250   -7.2208 N   0  0  0  0  0  0  0  0  0  0  0  0
    7.7595    2.4624  -10.9100 C   0  0  0  0  0  0  0  0  0  0  0  0
    7.8505    1.4239  -11.7297 C   0  0  0  0  0  0  0  0  0  0  0  0
    4.2698   -3.6552   -6.1212 C   0  0  0  0  0  0  0  0  0  0  0  0
    4.0091   -2.6298   -5.3245 C   0  0  0  0  0  0  0  0  0  0  0  0
    4.7063   -0.7479   -2.9322 C   0  0  0  0  0  0  0  0  0  0  0  0
    4.1395   -0.7488   -1.6589 C   0  0  0  0  0  0  0  0  0  0  0  0
    2.7021    0.1394    1.9303 H   0  0  0  0  0  0  0  0  0  0  0  0
    5.0283    0.5674    0.2242 H   0  0  0  0  0  0  0  0  0  0  0  0
    5.0275   -0.4789    1.6562 H   0  0  0  0  0  0  0  0  0  0  0  0
    4.5772    2.4669    1.6426 H   0  0  0  0  0  0  0  0  0  0  0  0
    6.0551    1.5830    2.1491 H   0  0  0  0  0  0  0  0  0  0  0  0
    3.4239    1.6178    3.5172 H   0  0  0  0  0  0  0  0  0  0  0  0
    4.9955    2.2977    4.0535 H   0  0  0  0  0  0  0  0  0  0  0  0
    4.3505   -0.5912    3.7877 H   0  0  0  0  0  0  0  0  0  0  0  0
    4.4687    0.3459    5.2884 H   0  0  0  0  0  0  0  0  0  0  0  0
    6.7217   -0.0473    3.4912 H   0  0  0  0  0  0  0  0  0  0  0  0
    5.2349   -1.9580    6.3083 H   0  0  0  0  0  0  0  0  0  0  0  0
    4.0597   -1.9926    8.4251 H   0  0  0  0  0  0  0  0  0  0  0  0
    4.6154   -0.3883   10.1314 H   0  0  0  0  0  0  0  0  0  0  0  0
    8.3229    1.6222    6.7167 H   0  0  0  0  0  0  0  0  0  0  0  0
    8.7535    3.9948   10.7946 H   0  0  0  0  0  0  0  0  0  0  0  0
    7.6304    3.9824   12.9294 H   0  0  0  0  0  0  0  0  0  0  0  0
    5.7902    2.4551   13.3064 H   0  0  0  0  0  0  0  0  0  0  0  0
    5.1168    0.9331   11.5663 H   0  0  0  0  0  0  0  0  0  0  0  0
    1.5331    1.2750   -2.2534 H   0  0  0  0  0  0  0  0  0  0  0  0
    2.4345    1.1568   -4.5032 H   0  0  0  0  0  0  0  0  0  0  0  0
    5.9276   -5.3269  -10.8700 H   0  0  0  0  0  0  0  0  0  0  0  0
    7.0980   -3.7523  -12.5867 H   0  0  0  0  0  0  0  0  0  0  0  0
    6.1484   -1.5318   -9.2229 H   0  0  0  0  0  0  0  0  0  0  0  0
    5.9150    4.0883   -6.2047 H   0  0  0  0  0  0  0  0  0  0  0  0
    4.8841    2.5267   -4.4857 H   0  0  0  0  0  0  0  0  0  0  0  0
    5.8424    0.2695   -7.8425 H   0  0  0  0  0  0  0  0  0  0  0  0
    8.0835    3.4323  -11.0493 H   0  0  0  0  0  0  0  0  0  0  0  0
    8.2515    1.4658  -12.6797 H   0  0  0  0  0  0  0  0  0  0  0  0
    4.0338   -4.6366   -5.9065 H   0  0  0  0  0  0  0  0  0  0  0  0
    3.4934   -2.6154   -4.4307 H   0  0  0  0  0  0  0  0  0  0  0  0
    5.5884   -1.2563   -3.1009 H   0  0  0  0  0  0  0  0  0  0  0  0
    4.5558   -1.3235   -0.9096 H   0  0  0  0  0  0  0  0  0  0  0  0
  1  2  2  0  0  0  0
  2  3  1  0  0  0  0
  2 26  1  0  0  0  0
  3  4  1  0  0  0  0
  3 89  1  0  0  0  0
  4  5  1  0  0  0  0
  4 90  1  0  0  0  0
  4 91  1  0  0  0  0
  5  6  1  0  0  0  0
  5 92  1  0  0  0  0
  5 93  1  0  0  0  0
  6  7  1  0  0  0  0
  6 94  1  0  0  0  0
  6 95  1  0  0  0  0
  7  8  1  0  0  0  0
  7 96  1  0  0  0  0
  7 97  1  0  0  0  0
  8  9  1  0  0  0  0
  8 98  1  0  0  0  0
  9 10  2  0  0  0  0
  9 11  1  0  0  0  0
 11 12  1  0  0  0  0
 11 16  2  0  0  0  0
 12 13  2  0  0  0  0
 12 99  1  0  0  0  0
 13 14  1  0  0  0  0
 13100  1  0  0  0  0
 14 15  2  0  0  0  0
 14101  1  0  0  0  0
 15 16  1  0  0  0  0
 15 25  1  0  0  0  0
 16 17  1  0  0  0  0
 17 18  2  0  0  0  0
 17102  1  0  0  0  0
 18 19  1  0  0  0  0
 18 20  1  0  0  0  0
 20 21  1  0  0  0  0
 20 25  2  0  0  0  0
 21 22  2  0  0  0  0
 21103  1  0  0  0  0
 22 23  1  0  0  0  0
 22104  1  0  0  0  0
 23 24  2  0  0  0  0
 23105  1  0  0  0  0
 24 25  1  0  0  0  0
 24106  1  0  0  0  0
 26 27  1  0  0  0  0
 26 88  2  0  0  0  0
 27 28  2  0  0  0  0
 27107  1  0  0  0  0
 28 29  1  0  0  0  0
 28108  1  0  0  0  0
 29 30  1  0  0  0  0
 29 87  2  0  0  0  0
 30 31  1  0  0  0  0
 30 81  2  0  0  0  0
 31 32  2  0  0  0  0
 31 86  1  0  0  0  0
 32 33  1  0  0  0  0
 33 34  2  0  0  0  0
 33 85  1  0  0  0  0
 34 35  1  0  0  0  0
 34 46  1  0  0  0  0
 35 36  1  0  0  0  0
 35 44  2  0  0  0  0
 36 37  1  0  0  0  0
 36 38  2  0  0  0  0
 38 39  1  0  0  0  0
 38 40  1  0  0  0  0
 40 41  1  0  0  0  0
 40 42  2  0  0  0  0
 42 43  1  0  0  0  0
 42 44  1  0  0  0  0
 44 45  1  0  0  0  0
 46 47  2  0  0  0  0
 46 50  1  0  0  0  0
 47 48  1  0  0  0  0
 47109  1  0  0  0  0
 48 49  2  0  0  0  0
 48110  1  0  0  0  0
 49 50  1  0  0  0  0
 49 51  1  0  0  0  0
 50111  1  0  0  0  0
 51 52  1  0  0  0  0
 51 63  2  0  0  0  0
 52 53  1  0  0  0  0
 52 61  2  0  0  0  0
 53 54  1  0  0  0  0
 53 55  2  0  0  0  0
 55 56  1  0  0  0  0
 55 57  1  0  0  0  0
 57 58  1  0  0  0  0
 57 59  2  0  0  0  0
 59 60  1  0  0  0  0
 59 61  1  0  0  0  0
 61 62  1  0  0  0  0
 63 64  1  0  0  0  0
 63 84  1  0  0  0  0
 64 65  2  0  0  0  0
 65 66  1  0  0  0  0
 65 83  1  0  0  0  0
 66 67  1  0  0  0  0
 66 78  2  0  0  0  0
 67 68  1  0  0  0  0
 67 76  2  0  0  0  0
 68 69  1  0  0  0  0
 68 70  2  0  0  0  0
 70 71  1  0  0  0  0
 70 72  1  0  0  0  0
 72 73  1  0  0  0  0
 72 74  2  0  0  0  0
 74 75  1  0  0  0  0
 74 76  1  0  0  0  0
 76 77  1  0  0  0  0
 78 79  1  0  0  0  0
 78 82  1  0  0  0  0
 79 80  2  0  0  0  0
 79112  1  0  0  0  0
 80 81  1  0  0  0  0
 80113  1  0  0  0  0
 81 82  1  0  0  0  0
 82114  1  0  0  0  0
 83 84  2  0  0  0  0
 83115  1  0  0  0  0
 84116  1  0  0  0  0
 85 86  2  0  0  0  0
 85117  1  0  0  0  0
 86118  1  0  0  0  0
 87 88  1  0  0  0  0
 87119  1  0  0  0  0
 88120  1  0  0  0  0
M  END
$$$$
