0_1_7040
 OpenBabel04152301363D

128139  0  0  1  0  0  0  0  0999 V2000
    1.6113   -0.5339    0.3628 C   0  0  0  0  0  0  0  0  0  0  0  0
    0.5646   -1.1895   -0.4717 C   0  0  0  0  0  0  0  0  0  0  0  0
    0.9632   -1.7847   -1.6074 N   0  0  0  0  0  0  0  0  0  0  0  0
   -0.3483   -2.6981   -2.1343 S   0  0  0  0  0  0  0  0  0  0  0  0
   -1.0738   -2.6633   -0.5652 C   0  0  0  0  0  0  0  0  0  0  0  0
   -2.0044   -3.5919   -0.1916 N   0  0  0  0  0  0  0  0  0  0  0  0
   -1.8613   -4.9417   -0.0096 C   0  0  0  0  0  0  0  0  0  0  0  0
   -2.9152   -5.5345    0.2810 O   0  0  0  0  0  0  0  0  0  0  0  0
   -0.5282   -5.7736   -0.0567 C   0  0  1  0  0  0  0  0  0  0  0  0
    0.8071   -5.1105   -0.4514 C   0  0  0  0  0  0  0  0  0  0  0  0
    1.8288   -6.1699   -0.5101 C   0  0  0  0  0  0  0  0  0  0  0  0
    2.8014   -6.3460   -1.4446 N   0  0  0  0  0  0  0  0  0  0  0  0
    3.2358   -7.6366   -1.2975 C   0  0  0  0  0  0  0  0  0  0  0  0
    2.6535   -8.2395   -0.2786 N   0  0  0  0  0  0  0  0  0  0  0  0
    1.7579   -7.3270    0.2177 C   0  0  0  0  0  0  0  0  0  0  0  0
    0.6718   -7.6015    1.2098 C   0  0  0  0  0  0  0  0  0  0  0  0
   -0.3340   -6.4897    1.2681 N   0  3  0  0  0  0  0  0  0  0  0  0
   -0.8417   -1.3420   -0.2001 C   0  0  0  0  0  0  0  0  0  0  0  0
   -1.8423   -0.5140    0.4422 C   0  0  0  0  0  0  0  0  0  0  0  0
   -2.8229   -1.0077    0.9995 O   0  0  0  0  0  0  0  0  0  0  0  0
   -1.8355    0.8499    0.2552 N   0  0  0  0  0  0  0  0  0  0  0  0
   -0.7642    1.7538   -0.1022 C   0  0  0  0  0  0  0  0  0  0  0  0
   -0.6744    2.2049   -1.5569 C   0  0  0  0  0  0  0  0  0  0  0  0
   -1.4562    3.4781   -1.9128 C   0  0  0  0  0  0  0  0  0  0  0  0
   -1.2434    4.6858   -0.9961 C   0  0  0  0  0  0  0  0  0  0  0  0
    0.1437    5.1416   -0.9137 N   0  0  0  0  0  0  0  0  0  0  0  0
    0.6719    6.0234    0.0126 C   0  0  0  0  0  0  0  0  0  0  0  0
    1.6974    6.6593   -0.2122 O   0  0  0  0  0  0  0  0  0  0  0  0
   -0.0149    6.1624    1.3052 C   0  0  0  0  0  0  0  0  0  0  0  0
   -0.3978    7.4041    1.8125 C   0  0  0  0  0  0  0  0  0  0  0  0
   -1.2063    7.4413    2.9477 C   0  0  0  0  0  0  0  0  0  0  0  0
   -1.6517    6.2400    3.5243 C   0  0  0  0  0  0  0  0  0  0  0  0
   -2.6520    6.2512    4.5913 C   0  0  0  0  0  0  0  0  0  0  0  0
   -3.9209    6.9690    4.2677 C   0  0  0  0  0  0  0  0  0  0  0  0
   -4.4329    7.9919    4.8702 N   0  0  0  0  0  0  0  0  0  0  0  0
   -5.6513    8.2497    4.2414 C   0  0  0  0  0  0  0  0  0  0  0  0
   -6.6392    8.9442    4.8744 C   0  0  0  0  0  0  0  0  0  0  0  0
   -8.1231    8.6787    4.7242 C   0  0  0  0  0  0  0  0  0  0  0  0
   -9.0396    9.5223    5.3901 C   0  0  0  0  0  0  0  0  0  0  0  0
   -8.6417   10.6976    5.9005 F   0  0  0  0  0  0  0  0  0  0  0  0
  -10.3594    9.1343    5.6401 C   0  0  0  0  0  0  0  0  0  0  0  0
  -11.1474    9.9068    6.4002 F   0  0  0  0  0  0  0  0  0  0  0  0
  -10.8330    7.9227    5.1754 C   0  0  0  0  0  0  0  0  0  0  0  0
  -12.0731    7.5149    5.4740 F   0  0  0  0  0  0  0  0  0  0  0  0
   -9.9955    7.1099    4.4421 C   0  0  0  0  0  0  0  0  0  0  0  0
  -10.4319    5.9237    3.9949 F   0  0  0  0  0  0  0  0  0  0  0  0
   -8.6632    7.4696    4.2370 C   0  0  0  0  0  0  0  0  0  0  0  0
   -7.9092    6.5367    3.6460 F   0  0  0  0  0  0  0  0  0  0  0  0
   -6.1165    9.6668    6.0059 C   0  0  0  0  0  0  0  0  0  0  0  0
   -5.1812   10.6678    6.1790 C   0  0  0  0  0  0  0  0  0  0  0  0
   -4.5208   10.3478    7.4029 C   0  0  0  0  0  0  0  0  0  0  0  0
   -5.1328    9.2123    7.9349 C   0  0  0  0  0  0  0  0  0  0  0  0
   -6.3161    9.1274    7.2515 N   0  0  0  0  0  0  0  0  0  0  0  0
   -4.6912    8.2219    8.8873 C   0  0  0  0  0  0  0  0  0  0  0  0
   -3.4341    8.5256    9.6540 C   0  0  0  0  0  0  0  0  0  0  0  0
   -2.1970    7.8949    9.4327 C   0  0  0  0  0  0  0  0  0  0  0  0
   -2.0617    6.9444    8.5008 F   0  0  0  0  0  0  0  0  0  0  0  0
   -1.0556    8.2729   10.1378 C   0  0  0  0  0  0  0  0  0  0  0  0
    0.1078    7.6403    9.9230 F   0  0  0  0  0  0  0  0  0  0  0  0
   -1.1127    9.3226   11.0384 C   0  0  0  0  0  0  0  0  0  0  0  0
   -0.0079    9.7115   11.6901 F   0  0  0  0  0  0  0  0  0  0  0  0
   -2.3110    9.9867   11.2440 C   0  0  0  0  0  0  0  0  0  0  0  0
   -2.3609   11.0356   12.0765 F   0  0  0  0  0  0  0  0  0  0  0  0
   -3.4604    9.5846   10.5705 C   0  0  0  0  0  0  0  0  0  0  0  0
   -4.6001   10.2617   10.7815 F   0  0  0  0  0  0  0  0  0  0  0  0
   -5.2053    6.9617    8.9926 C   0  0  0  0  0  0  0  0  0  0  0  0
   -4.4529    5.9367    9.5430 N   0  0  0  0  0  0  0  0  0  0  0  0
   -4.8730    4.8617    8.9387 C   0  0  0  0  0  0  0  0  0  0  0  0
   -3.9887    3.7499    8.5204 C   0  0  0  0  0  0  0  0  0  0  0  0
   -4.2075    2.3564    8.9673 C   0  0  0  0  0  0  0  0  0  0  0  0
   -4.7589    2.0781   10.2282 C   0  0  0  0  0  0  0  0  0  0  0  0
   -4.8835    3.0539   11.1393 F   0  0  0  0  0  0  0  0  0  0  0  0
   -5.2575    0.8110   10.5462 C   0  0  0  0  0  0  0  0  0  0  0  0
   -5.8390    0.6011   11.7356 F   0  0  0  0  0  0  0  0  0  0  0  0
   -5.2109   -0.2137    9.6154 C   0  0  0  0  0  0  0  0  0  0  0  0
   -5.7505   -1.4082    9.8949 F   0  0  0  0  0  0  0  0  0  0  0  0
   -4.6419    0.0187    8.3767 C   0  0  0  0  0  0  0  0  0  0  0  0
   -4.6225   -0.9546    7.4551 F   0  0  0  0  0  0  0  0  0  0  0  0
   -4.1493    1.2845    8.0561 C   0  0  0  0  0  0  0  0  0  0  0  0
   -3.7036    1.4715    6.8051 F   0  0  0  0  0  0  0  0  0  0  0  0
   -3.2021    4.2138    7.5195 C   0  0  0  0  0  0  0  0  0  0  0  0
   -1.9603    3.6718    7.0023 C   0  0  0  0  0  0  0  0  0  0  0  0
   -1.5277    4.4694    6.0021 C   0  0  0  0  0  0  0  0  0  0  0  0
   -2.5533    5.4730    5.6915 C   0  0  0  0  0  0  0  0  0  0  0  0
   -3.4290    5.3312    6.7252 N   0  0  0  0  0  0  0  0  0  0  0  0
   -6.1757    4.9703    8.3024 C   0  0  0  0  0  0  0  0  0  0  0  0
   -6.3226    6.2973    8.3275 C   0  0  0  0  0  0  0  0  0  0  0  0
   -5.6696    7.4386    3.0529 C   0  0  0  0  0  0  0  0  0  0  0  0
   -4.6685    6.5557    3.0680 C   0  0  0  0  0  0  0  0  0  0  0  0
   -1.2401    5.0140    3.0069 C   0  0  0  0  0  0  0  0  0  0  0  0
   -0.3383    4.9843    1.9717 C   0  0  0  0  0  0  0  0  0  0  0  0
    2.5560   -0.5967   -0.1357 H   0  0  0  0  0  0  0  0  0  0  0  0
    1.6741   -1.0284    1.3096 H   0  0  0  0  0  0  0  0  0  0  0  0
    1.3552    0.4940    0.5135 H   0  0  0  0  0  0  0  0  0  0  0  0
   -2.9092   -3.2392   -0.0298 H   0  0  0  0  0  0  0  0  0  0  0  0
   -0.7177   -6.4076   -0.8975 H   0  0  0  0  0  0  0  0  0  0  0  0
    1.0815   -4.3788    0.2795 H   0  0  0  0  0  0  0  0  0  0  0  0
    0.7184   -4.6204   -1.3984 H   0  0  0  0  0  0  0  0  0  0  0  0
    3.1267   -5.6815   -2.0941 H   0  0  0  0  0  0  0  0  0  0  0  0
    3.9351   -8.0840   -1.9105 H   0  0  0  0  0  0  0  0  0  0  0  0
    1.1111   -7.7204    2.1782 H   0  0  0  0  0  0  0  0  0  0  0  0
    0.1622   -8.4908    0.9027 H   0  0  0  0  0  0  0  0  0  0  0  0
   -1.2305   -6.8810    1.5573 H   0  0  0  0  0  0  0  0  0  0  0  0
    0.0211   -5.8004    1.9308 H   0  0  0  0  0  0  0  0  0  0  0  0
   -2.7090    1.2843    0.3873 H   0  0  0  0  0  0  0  0  0  0  0  0
    0.1581    1.2682    0.1396 H   0  0  0  0  0  0  0  0  0  0  0  0
   -0.9701    2.6488    0.4469 H   0  0  0  0  0  0  0  0  0  0  0  0
   -1.0449    1.4103   -2.1702 H   0  0  0  0  0  0  0  0  0  0  0  0
    0.3558    2.4408   -1.7243 H   0  0  0  0  0  0  0  0  0  0  0  0
   -2.4983    3.2358   -1.8955 H   0  0  0  0  0  0  0  0  0  0  0  0
   -1.0874    3.7798   -2.8709 H   0  0  0  0  0  0  0  0  0  0  0  0
   -1.5681    4.4206   -0.0116 H   0  0  0  0  0  0  0  0  0  0  0  0
   -1.8067    5.4926   -1.4164 H   0  0  0  0  0  0  0  0  0  0  0  0
    0.7663    4.7839   -1.5872 H   0  0  0  0  0  0  0  0  0  0  0  0
   -0.0890    8.2771    1.3570 H   0  0  0  0  0  0  0  0  0  0  0  0
   -1.4763    8.3469    3.3625 H   0  0  0  0  0  0  0  0  0  0  0  0
   -4.9994   11.4721    5.5585 H   0  0  0  0  0  0  0  0  0  0  0  0
   -3.7309   10.8644    7.8203 H   0  0  0  0  0  0  0  0  0  0  0  0
   -7.1581    8.7478    7.5923 H   0  0  0  0  0  0  0  0  0  0  0  0
   -1.4869    2.8199    7.3416 H   0  0  0  0  0  0  0  0  0  0  0  0
   -0.6148    4.3861    5.5281 H   0  0  0  0  0  0  0  0  0  0  0  0
   -4.1612    5.9670    6.8953 H   0  0  0  0  0  0  0  0  0  0  0  0
   -6.8032    4.2365    7.9380 H   0  0  0  0  0  0  0  0  0  0  0  0
   -7.1314    6.7952    7.9239 H   0  0  0  0  0  0  0  0  0  0  0  0
   -6.3620    7.5273    2.2928 H   0  0  0  0  0  0  0  0  0  0  0  0
   -4.4703    5.7851    2.4109 H   0  0  0  0  0  0  0  0  0  0  0  0
   -1.6103    4.1340    3.3988 H   0  0  0  0  0  0  0  0  0  0  0  0
    0.0976    4.0925    1.6893 H   0  0  0  0  0  0  0  0  0  0  0  0
  1  2  1  0  0  0  0
  1 92  1  0  0  0  0
  1 93  1  0  0  0  0
  1 94  1  0  0  0  0
  2  3  2  0  0  0  0
  2 18  1  0  0  0  0
  3  4  1  0  0  0  0
  4  5  1  0  0  0  0
  5  6  1  0  0  0  0
  5 18  2  0  0  0  0
  6  7  1  0  0  0  0
  6 95  1  0  0  0  0
  7  8  2  0  0  0  0
  7  9  1  0  0  0  0
  9 10  1  0  0  0  0
  9 17  1  0  0  0  0
  9 96  1  6  0  0  0
 10 11  1  0  0  0  0
 10 97  1  0  0  0  0
 10 98  1  0  0  0  0
 11 12  1  0  0  0  0
 11 15  2  0  0  0  0
 12 13  1  0  0  0  0
 12 99  1  0  0  0  0
 13 14  2  0  0  0  0
 13100  1  0  0  0  0
 14 15  1  0  0  0  0
 15 16  1  0  0  0  0
 16 17  1  0  0  0  0
 16101  1  0  0  0  0
 16102  1  0  0  0  0
 17103  1  0  0  0  0
 17104  1  0  0  0  0
 18 19  1  0  0  0  0
 19 20  2  0  0  0  0
 19 21  1  0  0  0  0
 21 22  1  0  0  0  0
 21105  1  0  0  0  0
 22 23  1  0  0  0  0
 22106  1  0  0  0  0
 22107  1  0  0  0  0
 23 24  1  0  0  0  0
 23108  1  0  0  0  0
 23109  1  0  0  0  0
 24 25  1  0  0  0  0
 24110  1  0  0  0  0
 24111  1  0  0  0  0
 25 26  1  0  0  0  0
 25112  1  0  0  0  0
 25113  1  0  0  0  0
 26 27  1  0  0  0  0
 26114  1  0  0  0  0
 27 28  2  0  0  0  0
 27 29  1  0  0  0  0
 29 30  1  0  0  0  0
 29 91  2  0  0  0  0
 30 31  2  0  0  0  0
 30115  1  0  0  0  0
 31 32  1  0  0  0  0
 31116  1  0  0  0  0
 32 33  1  0  0  0  0
 32 90  2  0  0  0  0
 33 34  1  0  0  0  0
 33 84  2  0  0  0  0
 34 35  2  0  0  0  0
 34 89  1  0  0  0  0
 35 36  1  0  0  0  0
 36 37  2  0  0  0  0
 36 88  1  0  0  0  0
 37 38  1  0  0  0  0
 37 49  1  0  0  0  0
 38 39  1  0  0  0  0
 38 47  2  0  0  0  0
 39 40  1  0  0  0  0
 39 41  2  0  0  0  0
 41 42  1  0  0  0  0
 41 43  1  0  0  0  0
 43 44  1  0  0  0  0
 43 45  2  0  0  0  0
 45 46  1  0  0  0  0
 45 47  1  0  0  0  0
 47 48  1  0  0  0  0
 49 50  2  0  0  0  0
 49 53  1  0  0  0  0
 50 51  1  0  0  0  0
 50117  1  0  0  0  0
 51 52  2  0  0  0  0
 51118  1  0  0  0  0
 52 53  1  0  0  0  0
 52 54  1  0  0  0  0
 53119  1  0  0  0  0
 54 55  1  0  0  0  0
 54 66  2  0  0  0  0
 55 56  1  0  0  0  0
 55 64  2  0  0  0  0
 56 57  1  0  0  0  0
 56 58  2  0  0  0  0
 58 59  1  0  0  0  0
 58 60  1  0  0  0  0
 60 61  1  0  0  0  0
 60 62  2  0  0  0  0
 62 63  1  0  0  0  0
 62 64  1  0  0  0  0
 64 65  1  0  0  0  0
 66 67  1  0  0  0  0
 66 87  1  0  0  0  0
 67 68  2  0  0  0  0
 68 69  1  0  0  0  0
 68 86  1  0  0  0  0
 69 70  1  0  0  0  0
 69 81  2  0  0  0  0
 70 71  1  0  0  0  0
 70 79  2  0  0  0  0
 71 72  1  0  0  0  0
 71 73  2  0  0  0  0
 73 74  1  0  0  0  0
 73 75  1  0  0  0  0
 75 76  1  0  0  0  0
 75 77  2  0  0  0  0
 77 78  1  0  0  0  0
 77 79  1  0  0  0  0
 79 80  1  0  0  0  0
 81 82  1  0  0  0  0
 81 85  1  0  0  0  0
 82 83  2  0  0  0  0
 82120  1  0  0  0  0
 83 84  1  0  0  0  0
 83121  1  0  0  0  0
 84 85  1  0  0  0  0
 85122  1  0  0  0  0
 86 87  2  0  0  0  0
 86123  1  0  0  0  0
 87124  1  0  0  0  0
 88 89  2  0  0  0  0
 88125  1  0  0  0  0
 89126  1  0  0  0  0
 90 91  1  0  0  0  0
 90127  1  0  0  0  0
 91128  1  0  0  0  0
M  CHG  1  17   1
M  END
$$$$
