0_1_2621
 OpenBabel04152301353D

132142  0  0  1  0  0  0  0  0999 V2000
    0.7689   -0.0343   -0.2391 C   0  0  0  0  0  0  0  0  0  0  0  0
    0.6267   -0.5530    1.1805 C   0  0  0  0  0  0  0  0  0  0  0  0
    1.1623    0.3985    2.1082 O   0  0  0  0  0  0  0  0  0  0  0  0
    2.5118    0.4023    2.2437 C   0  0  0  0  0  0  0  0  0  0  0  0
    3.3092   -0.3447    1.7223 O   0  0  0  0  0  0  0  0  0  0  0  0
    2.8598    1.5369    3.1027 C   0  0  0  0  0  0  0  0  0  0  0  0
    3.8321    2.4312    2.8715 C   0  0  0  0  0  0  0  0  0  0  0  0
    4.8309    2.4996    1.7686 C   0  0  0  0  0  0  0  0  0  0  0  0
    3.7133    3.4443    3.7954 N   0  0  0  0  0  0  0  0  0  0  0  0
    4.5144    4.5907    3.9262 C   0  0  0  0  0  0  0  0  0  0  0  0
    4.2093    5.7600    3.2296 C   0  0  0  0  0  0  0  0  0  0  0  0
    5.0096    6.8919    3.3964 C   0  0  0  0  0  0  0  0  0  0  0  0
    6.0984    6.8602    4.2700 C   0  0  0  0  0  0  0  0  0  0  0  0
    6.3973    5.6946    4.9742 C   0  0  0  0  0  0  0  0  0  0  0  0
    5.6113    4.5561    4.7956 C   0  0  0  0  0  0  0  0  0  0  0  0
    2.5320    3.2840    4.5259 C   0  0  0  0  0  0  0  0  0  0  0  0
    1.9409    4.1246    5.1830 O   0  0  0  0  0  0  0  0  0  0  0  0
    2.0872    1.8410    4.3635 C   0  0  2  0  0  0  0  0  0  0  0  0
    2.6148    0.9518    5.4916 C   0  0  0  0  0  0  0  0  0  0  0  0
    1.8778    1.1303    6.7988 C   0  0  0  0  0  0  0  0  0  0  0  0
    0.8072    0.5581    7.0020 O   0  0  0  0  0  0  0  0  0  0  0  0
    2.4217    1.8868    7.7937 N   0  0  0  0  0  0  0  0  0  0  0  0
    3.5458    2.8042    7.7450 C   0  0  0  0  0  0  0  0  0  0  0  0
    3.0698    4.2521    7.8439 C   0  0  0  0  0  0  0  0  0  0  0  0
    2.8927    4.7858    9.2535 C   0  0  0  0  0  0  0  0  0  0  0  0
    4.1571    4.8129   10.0893 C   0  0  0  0  0  0  0  0  0  0  0  0
    5.2465    5.5739    9.4913 N   0  0  0  0  0  0  0  0  0  0  0  0
    6.0389    6.5437   10.0600 C   0  0  0  0  0  0  0  0  0  0  0  0
    6.8760    7.1406    9.3919 O   0  0  0  0  0  0  0  0  0  0  0  0
    5.8318    6.8948   11.4802 C   0  0  0  0  0  0  0  0  0  0  0  0
    5.6928    8.2389   11.8317 C   0  0  0  0  0  0  0  0  0  0  0  0
    5.3163    8.5722   13.1339 C   0  0  0  0  0  0  0  0  0  0  0  0
    5.0204    7.5627   14.0645 C   0  0  0  0  0  0  0  0  0  0  0  0
    4.5401    7.8818   15.4320 C   0  0  0  0  0  0  0  0  0  0  0  0
    5.3471    7.4464   16.6239 C   0  0  0  0  0  0  0  0  0  0  0  0
    5.0623    7.5388   17.8980 N   0  0  0  0  0  0  0  0  0  0  0  0
    6.1077    6.9120   18.5624 C   0  0  0  0  0  0  0  0  0  0  0  0
    6.3221    6.8086   19.8951 C   0  0  0  0  0  0  0  0  0  0  0  0
    7.5481    6.0659   20.3379 C   0  0  0  0  0  0  0  0  0  0  0  0
    8.8351    6.5901   20.1397 C   0  0  0  0  0  0  0  0  0  0  0  0
    8.9952    7.7704   19.5222 F   0  0  0  0  0  0  0  0  0  0  0  0
    9.9666    5.8775   20.5260 C   0  0  0  0  0  0  0  0  0  0  0  0
   11.1862    6.3713   20.2714 F   0  0  0  0  0  0  0  0  0  0  0  0
    9.8336    4.6480   21.1528 C   0  0  0  0  0  0  0  0  0  0  0  0
   10.9239    3.9628   21.5240 F   0  0  0  0  0  0  0  0  0  0  0  0
    8.5707    4.1235   21.3842 C   0  0  0  0  0  0  0  0  0  0  0  0
    8.4413    2.9390   21.9979 F   0  0  0  0  0  0  0  0  0  0  0  0
    7.4375    4.8195   20.9712 C   0  0  0  0  0  0  0  0  0  0  0  0
    6.2309    4.2743   21.1866 F   0  0  0  0  0  0  0  0  0  0  0  0
    5.4618    7.3781   20.8959 C   0  0  0  0  0  0  0  0  0  0  0  0
    5.6232    7.3910   22.2696 C   0  0  0  0  0  0  0  0  0  0  0  0
    4.5246    8.0511   22.8316 C   0  0  0  0  0  0  0  0  0  0  0  0
    3.6978    8.4793   21.8051 C   0  0  0  0  0  0  0  0  0  0  0  0
    4.2791    8.0502   20.6238 N   0  0  0  0  0  0  0  0  0  0  0  0
    2.4704    9.2267   21.8937 C   0  0  0  0  0  0  0  0  0  0  0  0
    2.0086    9.6474   23.2562 C   0  0  0  0  0  0  0  0  0  0  0  0
    0.9175    9.0301   23.8839 C   0  0  0  0  0  0  0  0  0  0  0  0
    0.2276    8.0708   23.2488 F   0  0  0  0  0  0  0  0  0  0  0  0
    0.5080    9.4257   25.1540 C   0  0  0  0  0  0  0  0  0  0  0  0
   -0.5643    8.8534   25.7184 F   0  0  0  0  0  0  0  0  0  0  0  0
    1.1987   10.4209   25.8300 C   0  0  0  0  0  0  0  0  0  0  0  0
    0.8049   10.7976   27.0543 F   0  0  0  0  0  0  0  0  0  0  0  0
    2.2922   11.0314   25.2342 C   0  0  0  0  0  0  0  0  0  0  0  0
    2.9664   11.9856   25.8904 F   0  0  0  0  0  0  0  0  0  0  0  0
    2.6886   10.6563   23.9542 C   0  0  0  0  0  0  0  0  0  0  0  0
    3.7423   11.2720   23.3972 F   0  0  0  0  0  0  0  0  0  0  0  0
    1.7038    9.5984   20.8395 C   0  0  0  0  0  0  0  0  0  0  0  0
    1.9096    9.3702   19.4863 N   0  0  0  0  0  0  0  0  0  0  0  0
    0.8864    9.9101   18.8702 C   0  0  0  0  0  0  0  0  0  0  0  0
    0.5991    9.9886   17.3957 C   0  0  0  0  0  0  0  0  0  0  0  0
   -0.6227   10.6678   16.8942 C   0  0  0  0  0  0  0  0  0  0  0  0
   -0.7503   12.0615   16.9808 C   0  0  0  0  0  0  0  0  0  0  0  0
    0.2289   12.7891   17.5381 F   0  0  0  0  0  0  0  0  0  0  0  0
   -1.8994   12.7087   16.5325 C   0  0  0  0  0  0  0  0  0  0  0  0
   -2.0121   14.0374   16.6650 F   0  0  0  0  0  0  0  0  0  0  0  0
   -2.9320   11.9778   15.9651 C   0  0  0  0  0  0  0  0  0  0  0  0
   -4.0368   12.6007   15.5328 F   0  0  0  0  0  0  0  0  0  0  0  0
   -2.8211   10.5996   15.8540 C   0  0  0  0  0  0  0  0  0  0  0  0
   -3.8131    9.8918   15.2969 F   0  0  0  0  0  0  0  0  0  0  0  0
   -1.6816    9.9486   16.3236 C   0  0  0  0  0  0  0  0  0  0  0  0
   -1.6053    8.6144   16.2142 F   0  0  0  0  0  0  0  0  0  0  0  0
    1.4916    9.4794   16.5258 C   0  0  0  0  0  0  0  0  0  0  0  0
    1.3628    9.4913   15.0722 C   0  0  0  0  0  0  0  0  0  0  0  0
    2.4386    8.8946   14.5331 C   0  0  0  0  0  0  0  0  0  0  0  0
    3.3488    8.4864   15.6049 C   0  0  0  0  0  0  0  0  0  0  0  0
    2.6944    8.8567   16.7530 N   0  0  0  0  0  0  0  0  0  0  0  0
   -0.1020   10.5214   19.7695 C   0  0  0  0  0  0  0  0  0  0  0  0
    0.4641   10.3388   20.9542 C   0  0  0  0  0  0  0  0  0  0  0  0
    7.0016    6.3896   17.5534 C   0  0  0  0  0  0  0  0  0  0  0  0
    6.6277    6.7765   16.3444 C   0  0  0  0  0  0  0  0  0  0  0  0
    5.2035    6.2200   13.7017 C   0  0  0  0  0  0  0  0  0  0  0  0
    5.6862    5.8935   12.4421 C   0  0  0  0  0  0  0  0  0  0  0  0
    0.3662   -0.7519   -0.9230 H   0  0  0  0  0  0  0  0  0  0  0  0
    1.8039    0.1257   -0.4584 H   0  0  0  0  0  0  0  0  0  0  0  0
    0.2368    0.8889   -0.3365 H   0  0  0  0  0  0  0  0  0  0  0  0
    1.1582   -1.4769    1.2746 H   0  0  0  0  0  0  0  0  0  0  0  0
   -0.4103   -0.7061    1.3952 H   0  0  0  0  0  0  0  0  0  0  0  0
    4.7590    1.6176    1.1671 H   0  0  0  0  0  0  0  0  0  0  0  0
    5.8151    2.5698    2.1825 H   0  0  0  0  0  0  0  0  0  0  0  0
    4.6361    3.3605    1.1639 H   0  0  0  0  0  0  0  0  0  0  0  0
    3.3965    5.7884    2.5944 H   0  0  0  0  0  0  0  0  0  0  0  0
    4.7957    7.7548    2.8723 H   0  0  0  0  0  0  0  0  0  0  0  0
    6.6831    7.7014    4.3947 H   0  0  0  0  0  0  0  0  0  0  0  0
    7.1975    5.6742    5.6255 H   0  0  0  0  0  0  0  0  0  0  0  0
    5.8385    3.6876    5.3047 H   0  0  0  0  0  0  0  0  0  0  0  0
    1.0284    1.6866    4.3552 H   0  0  0  0  0  0  0  0  0  0  0  0
    3.6470    1.1845    5.6509 H   0  0  0  0  0  0  0  0  0  0  0  0
    2.4685   -0.0629    5.1853 H   0  0  0  0  0  0  0  0  0  0  0  0
    1.9892    1.7981    8.6736 H   0  0  0  0  0  0  0  0  0  0  0  0
    4.0688    2.6693    6.8213 H   0  0  0  0  0  0  0  0  0  0  0  0
    4.1920    2.5986    8.5727 H   0  0  0  0  0  0  0  0  0  0  0  0
    2.1270    4.3243    7.3430 H   0  0  0  0  0  0  0  0  0  0  0  0
    3.8406    4.8462    7.3991 H   0  0  0  0  0  0  0  0  0  0  0  0
    2.1761    4.1693    9.7547 H   0  0  0  0  0  0  0  0  0  0  0  0
    2.5784    5.8035    9.1518 H   0  0  0  0  0  0  0  0  0  0  0  0
    4.4885    3.8054   10.2309 H   0  0  0  0  0  0  0  0  0  0  0  0
    3.9093    5.2983   11.0101 H   0  0  0  0  0  0  0  0  0  0  0  0
    5.4425    5.3648    8.5494 H   0  0  0  0  0  0  0  0  0  0  0  0
    5.8669    8.9797   11.1346 H   0  0  0  0  0  0  0  0  0  0  0  0
    5.2552    9.5636   13.4138 H   0  0  0  0  0  0  0  0  0  0  0  0
    6.4163    6.9843   22.7899 H   0  0  0  0  0  0  0  0  0  0  0  0
    4.3583    8.1947   23.8399 H   0  0  0  0  0  0  0  0  0  0  0  0
    3.9081    8.1999   19.7243 H   0  0  0  0  0  0  0  0  0  0  0  0
    0.5727    9.8933   14.5438 H   0  0  0  0  0  0  0  0  0  0  0  0
    2.5982    8.7473   13.5242 H   0  0  0  0  0  0  0  0  0  0  0  0
    3.0534    8.6915   17.6547 H   0  0  0  0  0  0  0  0  0  0  0  0
   -1.0005   10.9739   19.5393 H   0  0  0  0  0  0  0  0  0  0  0  0
    0.0714   10.6808   21.8452 H   0  0  0  0  0  0  0  0  0  0  0  0
    7.8216    5.7946   17.7497 H   0  0  0  0  0  0  0  0  0  0  0  0
    7.1086    6.6433   15.4411 H   0  0  0  0  0  0  0  0  0  0  0  0
    4.9781    5.4711   14.3750 H   0  0  0  0  0  0  0  0  0  0  0  0
    5.9357    4.9175   12.2181 H   0  0  0  0  0  0  0  0  0  0  0  0
  1  2  1  0  0  0  0
  1 93  1  0  0  0  0
  1 94  1  0  0  0  0
  1 95  1  0  0  0  0
  2  3  1  0  0  0  0
  2 96  1  0  0  0  0
  2 97  1  0  0  0  0
  3  4  1  0  0  0  0
  4  5  2  0  0  0  0
  4  6  1  0  0  0  0
  6  7  2  0  0  0  0
  6 18  1  0  0  0  0
  7  8  1  0  0  0  0
  7  9  1  0  0  0  0
  8 98  1  0  0  0  0
  8 99  1  0  0  0  0
  8100  1  0  0  0  0
  9 10  1  0  0  0  0
  9 16  1  0  0  0  0
 10 11  1  0  0  0  0
 10 15  2  0  0  0  0
 11 12  2  0  0  0  0
 11101  1  0  0  0  0
 12 13  1  0  0  0  0
 12102  1  0  0  0  0
 13 14  2  0  0  0  0
 13103  1  0  0  0  0
 14 15  1  0  0  0  0
 14104  1  0  0  0  0
 15105  1  0  0  0  0
 16 17  2  0  0  0  0
 16 18  1  0  0  0  0
 18 19  1  0  0  0  0
 18106  1  6  0  0  0
 19 20  1  0  0  0  0
 19107  1  0  0  0  0
 19108  1  0  0  0  0
 20 21  2  0  0  0  0
 20 22  1  0  0  0  0
 22 23  1  0  0  0  0
 22109  1  0  0  0  0
 23 24  1  0  0  0  0
 23110  1  0  0  0  0
 23111  1  0  0  0  0
 24 25  1  0  0  0  0
 24112  1  0  0  0  0
 24113  1  0  0  0  0
 25 26  1  0  0  0  0
 25114  1  0  0  0  0
 25115  1  0  0  0  0
 26 27  1  0  0  0  0
 26116  1  0  0  0  0
 26117  1  0  0  0  0
 27 28  1  0  0  0  0
 27118  1  0  0  0  0
 28 29  2  0  0  0  0
 28 30  1  0  0  0  0
 30 31  1  0  0  0  0
 30 92  2  0  0  0  0
 31 32  2  0  0  0  0
 31119  1  0  0  0  0
 32 33  1  0  0  0  0
 32120  1  0  0  0  0
 33 34  1  0  0  0  0
 33 91  2  0  0  0  0
 34 35  1  0  0  0  0
 34 85  2  0  0  0  0
 35 36  2  0  0  0  0
 35 90  1  0  0  0  0
 36 37  1  0  0  0  0
 37 38  2  0  0  0  0
 37 89  1  0  0  0  0
 38 39  1  0  0  0  0
 38 50  1  0  0  0  0
 39 40  1  0  0  0  0
 39 48  2  0  0  0  0
 40 41  1  0  0  0  0
 40 42  2  0  0  0  0
 42 43  1  0  0  0  0
 42 44  1  0  0  0  0
 44 45  1  0  0  0  0
 44 46  2  0  0  0  0
 46 47  1  0  0  0  0
 46 48  1  0  0  0  0
 48 49  1  0  0  0  0
 50 51  2  0  0  0  0
 50 54  1  0  0  0  0
 51 52  1  0  0  0  0
 51121  1  0  0  0  0
 52 53  2  0  0  0  0
 52122  1  0  0  0  0
 53 54  1  0  0  0  0
 53 55  1  0  0  0  0
 54123  1  0  0  0  0
 55 56  1  0  0  0  0
 55 67  2  0  0  0  0
 56 57  1  0  0  0  0
 56 65  2  0  0  0  0
 57 58  1  0  0  0  0
 57 59  2  0  0  0  0
 59 60  1  0  0  0  0
 59 61  1  0  0  0  0
 61 62  1  0  0  0  0
 61 63  2  0  0  0  0
 63 64  1  0  0  0  0
 63 65  1  0  0  0  0
 65 66  1  0  0  0  0
 67 68  1  0  0  0  0
 67 88  1  0  0  0  0
 68 69  2  0  0  0  0
 69 70  1  0  0  0  0
 69 87  1  0  0  0  0
 70 71  1  0  0  0  0
 70 82  2  0  0  0  0
 71 72  1  0  0  0  0
 71 80  2  0  0  0  0
 72 73  1  0  0  0  0
 72 74  2  0  0  0  0
 74 75  1  0  0  0  0
 74 76  1  0  0  0  0
 76 77  1  0  0  0  0
 76 78  2  0  0  0  0
 78 79  1  0  0  0  0
 78 80  1  0  0  0  0
 80 81  1  0  0  0  0
 82 83  1  0  0  0  0
 82 86  1  0  0  0  0
 83 84  2  0  0  0  0
 83124  1  0  0  0  0
 84 85  1  0  0  0  0
 84125  1  0  0  0  0
 85 86  1  0  0  0  0
 86126  1  0  0  0  0
 87 88  2  0  0  0  0
 87127  1  0  0  0  0
 88128  1  0  0  0  0
 89 90  2  0  0  0  0
 89129  1  0  0  0  0
 90130  1  0  0  0  0
 91 92  1  0  0  0  0
 91131  1  0  0  0  0
 92132  1  0  0  0  0
M  END
$$$$
