0_2_6550
 OpenBabel04152301373D

121130  0  0  1  0  0  0  0  0999 V2000
   -3.2486    1.1294    4.1783 C   0  0  0  0  0  0  0  0  0  0  0  0
   -1.7324    0.9984    4.2746 C   0  0  2  0  0  0  0  0  0  0  0  0
   -0.9971    2.3563    4.3541 C   0  0  0  0  0  0  0  0  0  0  0  0
   -1.1641    3.2340    3.1983 N   0  3  0  0  0  0  0  0  0  0  0  0
   -0.9123   -0.1531    3.0829 S   0  0  0  0  0  0  0  0  0  0  0  0
   -1.9880   -0.1745    1.5963 C   0  0  2  0  0  0  0  0  0  0  0  0
   -1.4880   -1.3015    0.6821 C   0  0  0  0  0  0  0  0  0  0  0  0
   -2.0103    1.1107    0.8401 C   0  0  0  0  0  0  0  0  0  0  0  0
   -3.0291    1.9795    0.5093 C   0  0  0  0  0  0  0  0  0  0  0  0
   -2.4482    2.9994   -0.2768 C   0  0  0  0  0  0  0  0  0  0  0  0
   -1.0973    2.7149   -0.3767 C   0  0  0  0  0  0  0  0  0  0  0  0
    0.0018    3.3746   -1.0424 C   0  0  0  0  0  0  0  0  0  0  0  0
    0.9323    2.7708   -1.5881 O   0  0  0  0  0  0  0  0  0  0  0  0
    0.0466    4.7480   -1.0937 N   0  0  0  0  0  0  0  0  0  0  0  0
   -0.7569    5.7248   -0.3791 C   0  0  0  0  0  0  0  0  0  0  0  0
    0.0989    6.7214    0.3922 C   0  0  0  0  0  0  0  0  0  0  0  0
    0.9353    7.6469   -0.4812 C   0  0  0  0  0  0  0  0  0  0  0  0
    0.1278    8.5620   -1.2745 N   0  0  0  0  0  0  0  0  0  0  0  0
    0.0543    9.9333   -1.2605 C   0  0  0  0  0  0  0  0  0  0  0  0
   -0.8302   10.4944   -1.9023 O   0  0  0  0  0  0  0  0  0  0  0  0
    1.0100   10.7452   -0.4721 C   0  0  0  0  0  0  0  0  0  0  0  0
    0.5444   11.8985    0.1685 C   0  0  0  0  0  0  0  0  0  0  0  0
    1.4208   12.6808    0.9262 C   0  0  0  0  0  0  0  0  0  0  0  0
    2.7586   12.2899    1.0922 C   0  0  0  0  0  0  0  0  0  0  0  0
    3.7065   13.0917    1.9098 C   0  0  0  0  0  0  0  0  0  0  0  0
    4.9189   13.7101    1.2650 C   0  0  0  0  0  0  0  0  0  0  0  0
    5.9072   14.3704    1.8154 N   0  0  0  0  0  0  0  0  0  0  0  0
    6.7882   14.6636    0.7820 C   0  0  0  0  0  0  0  0  0  0  0  0
    7.9300   15.3914    0.8226 C   0  0  0  0  0  0  0  0  0  0  0  0
    8.6980   15.5528   -0.4584 C   0  0  0  0  0  0  0  0  0  0  0  0
    8.2044   16.3258   -1.5209 C   0  0  0  0  0  0  0  0  0  0  0  0
    6.9989   16.9076   -1.4293 F   0  0  0  0  0  0  0  0  0  0  0  0
    8.9290   16.4694   -2.7013 C   0  0  0  0  0  0  0  0  0  0  0  0
    8.4124   17.1686   -3.7213 F   0  0  0  0  0  0  0  0  0  0  0  0
   10.1766   15.8783   -2.8284 C   0  0  0  0  0  0  0  0  0  0  0  0
   10.8764   16.0243   -3.9620 F   0  0  0  0  0  0  0  0  0  0  0  0
   10.6953   15.1297   -1.7829 C   0  0  0  0  0  0  0  0  0  0  0  0
   11.9073   14.5693   -1.8988 F   0  0  0  0  0  0  0  0  0  0  0  0
    9.9588   14.9566   -0.6136 C   0  0  0  0  0  0  0  0  0  0  0  0
   10.4816   14.2122    0.3724 F   0  0  0  0  0  0  0  0  0  0  0  0
    8.4444   16.0224    2.0093 C   0  0  0  0  0  0  0  0  0  0  0  0
    9.5619   16.8272    2.1446 C   0  0  0  0  0  0  0  0  0  0  0  0
    9.6852   17.1818    3.4920 C   0  0  0  0  0  0  0  0  0  0  0  0
    8.6147   16.6423    4.1865 C   0  0  0  0  0  0  0  0  0  0  0  0
    7.8686   15.9224    3.2674 N   0  0  0  0  0  0  0  0  0  0  0  0
    8.2938   16.7762    5.5842 C   0  0  0  0  0  0  0  0  0  0  0  0
    9.1781   17.6535    6.4221 C   0  0  0  0  0  0  0  0  0  0  0  0
   10.0416   17.1246    7.3921 C   0  0  0  0  0  0  0  0  0  0  0  0
   10.0630   15.8043    7.6293 F   0  0  0  0  0  0  0  0  0  0  0  0
   10.8566   17.9577    8.1541 C   0  0  0  0  0  0  0  0  0  0  0  0
   11.6355   17.4358    9.1118 F   0  0  0  0  0  0  0  0  0  0  0  0
   10.8522   19.3274    7.9353 C   0  0  0  0  0  0  0  0  0  0  0  0
   11.6417   20.1266    8.6660 F   0  0  0  0  0  0  0  0  0  0  0  0
   10.0235   19.8694    6.9649 C   0  0  0  0  0  0  0  0  0  0  0  0
   10.0284   21.1908    6.7417 F   0  0  0  0  0  0  0  0  0  0  0  0
    9.1843   19.0430    6.2237 C   0  0  0  0  0  0  0  0  0  0  0  0
    8.3829   19.5985    5.3023 F   0  0  0  0  0  0  0  0  0  0  0  0
    7.2351   16.1924    6.1976 C   0  0  0  0  0  0  0  0  0  0  0  0
    6.2446   15.3864    5.6524 N   0  0  0  0  0  0  0  0  0  0  0  0
    5.4536   15.0645    6.6467 C   0  0  0  0  0  0  0  0  0  0  0  0
    4.1924   14.2425    6.6321 C   0  0  0  0  0  0  0  0  0  0  0  0
    3.4326   13.9952    7.8859 C   0  0  0  0  0  0  0  0  0  0  0  0
    2.7702   15.0419    8.5433 C   0  0  0  0  0  0  0  0  0  0  0  0
    2.8246   16.2858    8.0445 F   0  0  0  0  0  0  0  0  0  0  0  0
    2.0894   14.8256    9.7394 C   0  0  0  0  0  0  0  0  0  0  0  0
    1.5093   15.8541   10.3727 F   0  0  0  0  0  0  0  0  0  0  0  0
    2.0286   13.5522   10.2844 C   0  0  0  0  0  0  0  0  0  0  0  0
    1.3727   13.3440   11.4341 F   0  0  0  0  0  0  0  0  0  0  0  0
    2.6560   12.4966    9.6401 C   0  0  0  0  0  0  0  0  0  0  0  0
    2.5867   11.2617   10.1557 F   0  0  0  0  0  0  0  0  0  0  0  0
    3.3624   12.7176    8.4593 C   0  0  0  0  0  0  0  0  0  0  0  0
    3.9727   11.6807    7.8671 F   0  0  0  0  0  0  0  0  0  0  0  0
    3.7380   13.7573    5.4607 C   0  0  0  0  0  0  0  0  0  0  0  0
    2.5279   12.9599    5.2859 C   0  0  0  0  0  0  0  0  0  0  0  0
    2.4080   12.6232    3.9915 C   0  0  0  0  0  0  0  0  0  0  0  0
    3.5149   13.2134    3.2378 C   0  0  0  0  0  0  0  0  0  0  0  0
    4.2546   13.8666    4.1926 N   0  0  0  0  0  0  0  0  0  0  0  0
    5.8777   15.6018    7.9472 C   0  0  0  0  0  0  0  0  0  0  0  0
    6.9394   16.3192    7.6092 C   0  0  0  0  0  0  0  0  0  0  0  0
    6.2489   14.0625   -0.4175 C   0  0  0  0  0  0  0  0  0  0  0  0
    5.0560   13.5346   -0.1899 C   0  0  0  0  0  0  0  0  0  0  0  0
    3.2149   11.1370    0.4367 C   0  0  0  0  0  0  0  0  0  0  0  0
    2.3641   10.4134   -0.3951 C   0  0  0  0  0  0  0  0  0  0  0  0
   -0.8379    1.5483    0.2942 O   0  0  0  0  0  0  0  0  0  0  0  0
   -3.6882    0.1552    4.1270 H   0  0  0  0  0  0  0  0  0  0  0  0
   -3.5036    1.6826    3.2986 H   0  0  0  0  0  0  0  0  0  0  0  0
   -3.6178    1.6423    5.0417 H   0  0  0  0  0  0  0  0  0  0  0  0
   -1.6242    0.5072    5.2190 H   0  0  0  0  0  0  0  0  0  0  0  0
    0.0482    2.1583    4.4686 H   0  0  0  0  0  0  0  0  0  0  0  0
   -1.4325    2.8765    5.1816 H   0  0  0  0  0  0  0  0  0  0  0  0
   -0.7650    2.7881    2.3723 H   0  0  0  0  0  0  0  0  0  0  0  0
   -0.6867    4.1186    3.3713 H   0  0  0  0  0  0  0  0  0  0  0  0
   -2.1573    3.4081    3.0443 H   0  0  0  0  0  0  0  0  0  0  0  0
   -2.9944   -0.3307    1.9246 H   0  0  0  0  0  0  0  0  0  0  0  0
   -0.4810   -1.0980    0.3831 H   0  0  0  0  0  0  0  0  0  0  0  0
   -2.1123   -1.3610   -0.1848 H   0  0  0  0  0  0  0  0  0  0  0  0
   -1.5221   -2.2312    1.2107 H   0  0  0  0  0  0  0  0  0  0  0  0
   -4.0211    1.9001    0.7824 H   0  0  0  0  0  0  0  0  0  0  0  0
   -2.9384    3.8044   -0.6971 H   0  0  0  0  0  0  0  0  0  0  0  0
    0.7216    5.1242   -1.7037 H   0  0  0  0  0  0  0  0  0  0  0  0
   -1.3921    5.2098    0.3109 H   0  0  0  0  0  0  0  0  0  0  0  0
   -1.3273    6.2715   -1.1006 H   0  0  0  0  0  0  0  0  0  0  0  0
    0.7621    6.1713    1.0265 H   0  0  0  0  0  0  0  0  0  0  0  0
   -0.5785    7.3467    0.9354 H   0  0  0  0  0  0  0  0  0  0  0  0
    1.5249    7.0493   -1.1447 H   0  0  0  0  0  0  0  0  0  0  0  0
    1.5441    8.2387    0.1700 H   0  0  0  0  0  0  0  0  0  0  0  0
   -0.4636    8.1256   -1.9295 H   0  0  0  0  0  0  0  0  0  0  0  0
   -0.4469   12.1720    0.0816 H   0  0  0  0  0  0  0  0  0  0  0  0
    1.0822   13.5508    1.3661 H   0  0  0  0  0  0  0  0  0  0  0  0
   10.1952   17.1160    1.3827 H   0  0  0  0  0  0  0  0  0  0  0  0
   10.4448   17.7491    3.8997 H   0  0  0  0  0  0  0  0  0  0  0  0
    7.0511   15.4151    3.4762 H   0  0  0  0  0  0  0  0  0  0  0  0
    1.8702   12.6971    6.0365 H   0  0  0  0  0  0  0  0  0  0  0  0
    1.6553   12.0411    3.5920 H   0  0  0  0  0  0  0  0  0  0  0  0
    5.0777   14.3663    3.9876 H   0  0  0  0  0  0  0  0  0  0  0  0
    5.4586   15.4581    8.8793 H   0  0  0  0  0  0  0  0  0  0  0  0
    7.4860   16.8951    8.2684 H   0  0  0  0  0  0  0  0  0  0  0  0
    6.7301   14.0470   -1.3303 H   0  0  0  0  0  0  0  0  0  0  0  0
    4.3944   13.1104   -0.8588 H   0  0  0  0  0  0  0  0  0  0  0  0
    4.1885   10.8225    0.5718 H   0  0  0  0  0  0  0  0  0  0  0  0
    2.7352    9.6304   -0.9557 H   0  0  0  0  0  0  0  0  0  0  0  0
  1 85  1  0  0  0  0
  1 86  1  0  0  0  0
  1 87  1  0  0  0  0
  2  5  1  0  0  0  0
  2  3  1  0  0  0  0
  2  1  1  0  0  0  0
  2 88  1  1  0  0  0
  3  4  1  0  0  0  0
  3 89  1  0  0  0  0
  3 90  1  0  0  0  0
  4 91  1  0  0  0  0
  4 92  1  0  0  0  0
  4 93  1  0  0  0  0
  6  8  1  0  0  0  0
  6  7  1  0  0  0  0
  6  5  1  0  0  0  0
  6 94  1  1  0  0  0
  7 95  1  0  0  0  0
  7 96  1  0  0  0  0
  7 97  1  0  0  0  0
  8  9  2  0  0  0  0
  8 84  1  0  0  0  0
  9 10  1  0  0  0  0
  9 98  1  0  0  0  0
 10 11  2  0  0  0  0
 10 99  1  0  0  0  0
 11 12  1  0  0  0  0
 11 84  1  0  0  0  0
 12 13  2  0  0  0  0
 12 14  1  0  0  0  0
 14 15  1  0  0  0  0
 14100  1  0  0  0  0
 15 16  1  0  0  0  0
 15101  1  0  0  0  0
 15102  1  0  0  0  0
 16 17  1  0  0  0  0
 16103  1  0  0  0  0
 16104  1  0  0  0  0
 17 18  1  0  0  0  0
 17105  1  0  0  0  0
 17106  1  0  0  0  0
 18 19  1  0  0  0  0
 18107  1  0  0  0  0
 19 20  2  0  0  0  0
 19 21  1  0  0  0  0
 21 22  1  0  0  0  0
 21 83  2  0  0  0  0
 22 23  2  0  0  0  0
 22108  1  0  0  0  0
 23 24  1  0  0  0  0
 23109  1  0  0  0  0
 24 25  1  0  0  0  0
 24 82  2  0  0  0  0
 25 26  1  0  0  0  0
 25 76  2  0  0  0  0
 26 27  2  0  0  0  0
 26 81  1  0  0  0  0
 27 28  1  0  0  0  0
 28 29  2  0  0  0  0
 28 80  1  0  0  0  0
 29 30  1  0  0  0  0
 29 41  1  0  0  0  0
 30 31  1  0  0  0  0
 30 39  2  0  0  0  0
 31 32  1  0  0  0  0
 31 33  2  0  0  0  0
 33 34  1  0  0  0  0
 33 35  1  0  0  0  0
 35 36  1  0  0  0  0
 35 37  2  0  0  0  0
 37 38  1  0  0  0  0
 37 39  1  0  0  0  0
 39 40  1  0  0  0  0
 41 42  2  0  0  0  0
 41 45  1  0  0  0  0
 42 43  1  0  0  0  0
 42110  1  0  0  0  0
 43 44  2  0  0  0  0
 43111  1  0  0  0  0
 44 45  1  0  0  0  0
 44 46  1  0  0  0  0
 45112  1  0  0  0  0
 46 47  1  0  0  0  0
 46 58  2  0  0  0  0
 47 48  1  0  0  0  0
 47 56  2  0  0  0  0
 48 49  1  0  0  0  0
 48 50  2  0  0  0  0
 50 51  1  0  0  0  0
 50 52  1  0  0  0  0
 52 53  1  0  0  0  0
 52 54  2  0  0  0  0
 54 55  1  0  0  0  0
 54 56  1  0  0  0  0
 56 57  1  0  0  0  0
 58 59  1  0  0  0  0
 58 79  1  0  0  0  0
 59 60  2  0  0  0  0
 60 61  1  0  0  0  0
 60 78  1  0  0  0  0
 61 62  1  0  0  0  0
 61 73  2  0  0  0  0
 62 63  1  0  0  0  0
 62 71  2  0  0  0  0
 63 64  1  0  0  0  0
 63 65  2  0  0  0  0
 65 66  1  0  0  0  0
 65 67  1  0  0  0  0
 67 68  1  0  0  0  0
 67 69  2  0  0  0  0
 69 70  1  0  0  0  0
 69 71  1  0  0  0  0
 71 72  1  0  0  0  0
 73 74  1  0  0  0  0
 73 77  1  0  0  0  0
 74 75  2  0  0  0  0
 74113  1  0  0  0  0
 75 76  1  0  0  0  0
 75114  1  0  0  0  0
 76 77  1  0  0  0  0
 77115  1  0  0  0  0
 78 79  2  0  0  0  0
 78116  1  0  0  0  0
 79117  1  0  0  0  0
 80 81  2  0  0  0  0
 80118  1  0  0  0  0
 81119  1  0  0  0  0
 82 83  1  0  0  0  0
 82120  1  0  0  0  0
 83121  1  0  0  0  0
M  CHG  1   4   1
M  END
$$$$
