0_2_6503
 OpenBabel04152301353D

119128  0  0  0  0  0  0  0  0999 V2000
    1.3483    1.4832   -1.9899 O   0  0  0  0  0  0  0  0  0  0  0  0
    2.1761    0.9365   -1.2694 C   0  0  0  0  0  0  0  0  0  0  0  0
    2.8068   -0.3930   -1.6361 C   0  0  0  0  0  0  0  0  0  0  0  0
    4.2688   -0.3481   -2.0610 C   0  0  0  0  0  0  0  0  0  0  0  0
    5.3129    0.0936   -1.0376 C   0  0  0  0  0  0  0  0  0  0  0  0
    5.8353   -1.1153    0.1919 S   0  0  0  0  0  0  0  0  0  0  0  0
    5.6531   -2.4518   -0.3045 O   0  0  0  0  0  0  0  0  0  0  0  0
    7.1532   -0.6787    0.6225 O   0  0  0  0  0  0  0  0  0  0  0  0
    4.9107   -0.8214    1.5505 N   0  0  0  0  0  0  0  0  0  0  0  0
    3.5693   -1.2209    1.8311 C   0  0  0  0  0  0  0  0  0  0  0  0
    2.8941   -0.4084    2.7528 C   0  0  0  0  0  0  0  0  0  0  0  0
    1.5061   -0.4979    2.9022 C   0  0  0  0  0  0  0  0  0  0  0  0
    0.7930   -1.4405    2.1699 C   0  0  0  0  0  0  0  0  0  0  0  0
   -0.9235   -1.4434    2.2205 Cl  0  0  0  0  0  0  0  0  0  0  0  0
    1.4676   -2.3548    1.3726 C   0  0  0  0  0  0  0  0  0  0  0  0
    2.8530   -2.2593    1.2316 C   0  0  0  0  0  0  0  0  0  0  0  0
    3.4366   -3.1377    0.4132 F   0  0  0  0  0  0  0  0  0  0  0  0
    2.5772    1.4611   -0.0614 N   0  0  0  0  0  0  0  0  0  0  0  0
    2.0702    2.7368    0.4036 C   0  0  0  0  0  0  0  0  0  0  0  0
    2.4695    3.0848    1.8350 C   0  0  0  0  0  0  0  0  0  0  0  0
    3.9712    3.1399    2.1017 C   0  0  0  0  0  0  0  0  0  0  0  0
    4.6281    4.2336    1.4140 N   0  0  0  0  0  0  0  0  0  0  0  0
    5.3002    5.3204    1.9171 C   0  0  0  0  0  0  0  0  0  0  0  0
    5.6236    6.2322    1.1612 O   0  0  0  0  0  0  0  0  0  0  0  0
    5.6205    5.4232    3.3600 C   0  0  0  0  0  0  0  0  0  0  0  0
    5.4497    6.6586    3.9921 C   0  0  0  0  0  0  0  0  0  0  0  0
    5.7395    6.7956    5.3526 C   0  0  0  0  0  0  0  0  0  0  0  0
    6.1637    5.6897    6.1072 C   0  0  0  0  0  0  0  0  0  0  0  0
    6.4045    5.8110    7.5717 C   0  0  0  0  0  0  0  0  0  0  0  0
    7.7801    5.5973    8.1442 C   0  0  0  0  0  0  0  0  0  0  0  0
    8.1699    5.6171    9.3953 N   0  0  0  0  0  0  0  0  0  0  0  0
    9.5285    5.3279    9.3753 C   0  0  0  0  0  0  0  0  0  0  0  0
   10.4042    5.2930   10.4095 C   0  0  0  0  0  0  0  0  0  0  0  0
   11.8362    4.9549   10.0995 C   0  0  0  0  0  0  0  0  0  0  0  0
   12.6627    5.8310    9.3788 C   0  0  0  0  0  0  0  0  0  0  0  0
   12.1706    6.9842    8.9013 F   0  0  0  0  0  0  0  0  0  0  0  0
   13.9907    5.5080    9.1102 C   0  0  0  0  0  0  0  0  0  0  0  0
   14.7442    6.3369    8.3743 F   0  0  0  0  0  0  0  0  0  0  0  0
   14.5308    4.3251    9.5912 C   0  0  0  0  0  0  0  0  0  0  0  0
   15.8113    4.0201    9.3399 F   0  0  0  0  0  0  0  0  0  0  0  0
   13.7408    3.4554   10.3271 C   0  0  0  0  0  0  0  0  0  0  0  0
   14.2652    2.3194   10.8076 F   0  0  0  0  0  0  0  0  0  0  0  0
   12.4030    3.7591   10.5675 C   0  0  0  0  0  0  0  0  0  0  0  0
   11.6624    2.8883   11.2697 F   0  0  0  0  0  0  0  0  0  0  0  0
   10.0525    5.5537   11.7823 C   0  0  0  0  0  0  0  0  0  0  0  0
   10.8792    5.5922   12.8923 C   0  0  0  0  0  0  0  0  0  0  0  0
   10.0867    5.8150   14.0229 C   0  0  0  0  0  0  0  0  0  0  0  0
    8.7748    5.9832   13.6115 C   0  0  0  0  0  0  0  0  0  0  0  0
    8.7671    5.8134   12.2351 N   0  0  0  0  0  0  0  0  0  0  0  0
    7.6135    6.2775   14.4127 C   0  0  0  0  0  0  0  0  0  0  0  0
    7.8064    6.4548   15.8930 C   0  0  0  0  0  0  0  0  0  0  0  0
    7.3061    5.5301   16.8220 C   0  0  0  0  0  0  0  0  0  0  0  0
    6.5938    4.4723   16.4052 F   0  0  0  0  0  0  0  0  0  0  0  0
    7.4967    5.7133   18.1896 C   0  0  0  0  0  0  0  0  0  0  0  0
    6.9607    4.8469   19.0604 F   0  0  0  0  0  0  0  0  0  0  0  0
    8.2251    6.7988   18.6528 C   0  0  0  0  0  0  0  0  0  0  0  0
    8.4135    6.9691   19.9686 F   0  0  0  0  0  0  0  0  0  0  0  0
    8.7506    7.7119   17.7520 C   0  0  0  0  0  0  0  0  0  0  0  0
    9.4690    8.7526   18.1957 F   0  0  0  0  0  0  0  0  0  0  0  0
    8.5313    7.5511   16.3866 C   0  0  0  0  0  0  0  0  0  0  0  0
    9.0386    8.4622   15.5426 F   0  0  0  0  0  0  0  0  0  0  0  0
    6.3588    6.4362   13.9237 C   0  0  0  0  0  0  0  0  0  0  0  0
    5.9188    6.3644   12.6082 N   0  0  0  0  0  0  0  0  0  0  0  0
    4.6258    6.5743   12.6485 C   0  0  0  0  0  0  0  0  0  0  0  0
    3.6371    6.6457   11.5152 C   0  0  0  0  0  0  0  0  0  0  0  0
    2.1975    6.9117   11.7804 C   0  0  0  0  0  0  0  0  0  0  0  0
    1.7719    8.1508   12.2802 C   0  0  0  0  0  0  0  0  0  0  0  0
    2.6698    9.1146   12.5326 F   0  0  0  0  0  0  0  0  0  0  0  0
    0.4296    8.3893   12.5682 C   0  0  0  0  0  0  0  0  0  0  0  0
    0.0587    9.5638   13.0960 F   0  0  0  0  0  0  0  0  0  0  0  0
   -0.5189    7.4069   12.3280 C   0  0  0  0  0  0  0  0  0  0  0  0
   -1.8100    7.6376   12.6015 F   0  0  0  0  0  0  0  0  0  0  0  0
   -0.1256    6.1817   11.8117 C   0  0  0  0  0  0  0  0  0  0  0  0
   -1.0404    5.2351   11.5615 F   0  0  0  0  0  0  0  0  0  0  0  0
    1.2206    5.9307   11.5551 C   0  0  0  0  0  0  0  0  0  0  0  0
    1.5727    4.7297   11.0727 F   0  0  0  0  0  0  0  0  0  0  0  0
    4.0698    6.4780   10.2504 C   0  0  0  0  0  0  0  0  0  0  0  0
    3.2301    6.5300    9.0574 C   0  0  0  0  0  0  0  0  0  0  0  0
    3.9841    6.2693    7.9780 C   0  0  0  0  0  0  0  0  0  0  0  0
    5.3724    6.0745    8.3978 C   0  0  0  0  0  0  0  0  0  0  0  0
    5.3281    6.2177    9.7635 N   0  0  0  0  0  0  0  0  0  0  0  0
    4.0934    6.7706   14.0044 C   0  0  0  0  0  0  0  0  0  0  0  0
    5.1966    6.7252   14.7370 C   0  0  0  0  0  0  0  0  0  0  0  0
    9.8846    5.0814    7.9943 C   0  0  0  0  0  0  0  0  0  0  0  0
    8.8564    5.3002    7.1875 C   0  0  0  0  0  0  0  0  0  0  0  0
    6.3549    4.4605    5.4563 C   0  0  0  0  0  0  0  0  0  0  0  0
    6.1337    4.3419    4.0820 C   0  0  0  0  0  0  0  0  0  0  0  0
    2.2441   -0.8094   -2.4454 H   0  0  0  0  0  0  0  0  0  0  0  0
    2.7864   -0.9771   -0.7398 H   0  0  0  0  0  0  0  0  0  0  0  0
    4.3359    0.3242   -2.8907 H   0  0  0  0  0  0  0  0  0  0  0  0
    4.5145   -1.3702   -2.2608 H   0  0  0  0  0  0  0  0  0  0  0  0
    4.9101    0.9332   -0.5106 H   0  0  0  0  0  0  0  0  0  0  0  0
    6.1920    0.2939   -1.6138 H   0  0  0  0  0  0  0  0  0  0  0  0
    5.3530   -0.2988    2.2580 H   0  0  0  0  0  0  0  0  0  0  0  0
    3.4269    0.2631    3.3274 H   0  0  0  0  0  0  0  0  0  0  0  0
    1.0134    0.1332    3.5533 H   0  0  0  0  0  0  0  0  0  0  0  0
    0.9473   -3.1017    0.8863 H   0  0  0  0  0  0  0  0  0  0  0  0
    3.2181    0.9622    0.4950 H   0  0  0  0  0  0  0  0  0  0  0  0
    1.0018    2.7131    0.3497 H   0  0  0  0  0  0  0  0  0  0  0  0
    2.5007    3.4868   -0.2266 H   0  0  0  0  0  0  0  0  0  0  0  0
    2.0459    2.3473    2.4843 H   0  0  0  0  0  0  0  0  0  0  0  0
    2.1028    4.0745    2.0106 H   0  0  0  0  0  0  0  0  0  0  0  0
    4.4095    2.2198    1.7759 H   0  0  0  0  0  0  0  0  0  0  0  0
    4.1045    3.2956    3.1519 H   0  0  0  0  0  0  0  0  0  0  0  0
    4.5858    4.1906    0.4313 H   0  0  0  0  0  0  0  0  0  0  0  0
    5.1092    7.4704    3.4534 H   0  0  0  0  0  0  0  0  0  0  0  0
    5.6409    7.7172    5.8064 H   0  0  0  0  0  0  0  0  0  0  0  0
   11.9047    5.4763   12.8864 H   0  0  0  0  0  0  0  0  0  0  0  0
   10.4224    5.8484   14.9982 H   0  0  0  0  0  0  0  0  0  0  0  0
    7.9674    5.8690   11.6636 H   0  0  0  0  0  0  0  0  0  0  0  0
    2.2186    6.7345    9.0458 H   0  0  0  0  0  0  0  0  0  0  0  0
    3.6396    6.2149    7.0067 H   0  0  0  0  0  0  0  0  0  0  0  0
    6.1231    6.1410   10.3391 H   0  0  0  0  0  0  0  0  0  0  0  0
    3.1163    6.9078   14.3067 H   0  0  0  0  0  0  0  0  0  0  0  0
    5.2238    6.8766   15.7575 H   0  0  0  0  0  0  0  0  0  0  0  0
   10.8182    4.7750    7.6788 H   0  0  0  0  0  0  0  0  0  0  0  0
    8.8204    5.2700    6.1566 H   0  0  0  0  0  0  0  0  0  0  0  0
    6.6616    3.6373    5.9979 H   0  0  0  0  0  0  0  0  0  0  0  0
    6.3493    3.4555    3.5996 H   0  0  0  0  0  0  0  0  0  0  0  0
  1  2  2  0  0  0  0
  2  3  1  0  0  0  0
  2 18  1  0  0  0  0
  3  4  1  0  0  0  0
  3 88  1  0  0  0  0
  3 89  1  0  0  0  0
  4  5  1  0  0  0  0
  4 90  1  0  0  0  0
  4 91  1  0  0  0  0
  5  6  1  0  0  0  0
  5 92  1  0  0  0  0
  5 93  1  0  0  0  0
  6  7  2  0  0  0  0
  6  8  2  0  0  0  0
  6  9  1  0  0  0  0
  9 10  1  0  0  0  0
  9 94  1  0  0  0  0
 10 11  1  0  0  0  0
 10 16  2  0  0  0  0
 11 12  2  0  0  0  0
 11 95  1  0  0  0  0
 12 13  1  0  0  0  0
 12 96  1  0  0  0  0
 13 14  1  0  0  0  0
 13 15  2  0  0  0  0
 15 16  1  0  0  0  0
 15 97  1  0  0  0  0
 16 17  1  0  0  0  0
 18 19  1  0  0  0  0
 18 98  1  0  0  0  0
 19 20  1  0  0  0  0
 19 99  1  0  0  0  0
 19100  1  0  0  0  0
 20 21  1  0  0  0  0
 20101  1  0  0  0  0
 20102  1  0  0  0  0
 21 22  1  0  0  0  0
 21103  1  0  0  0  0
 21104  1  0  0  0  0
 22 23  1  0  0  0  0
 22105  1  0  0  0  0
 23 24  2  0  0  0  0
 23 25  1  0  0  0  0
 25 26  1  0  0  0  0
 25 87  2  0  0  0  0
 26 27  2  0  0  0  0
 26106  1  0  0  0  0
 27 28  1  0  0  0  0
 27107  1  0  0  0  0
 28 29  1  0  0  0  0
 28 86  2  0  0  0  0
 29 30  1  0  0  0  0
 29 80  2  0  0  0  0
 30 31  2  0  0  0  0
 30 85  1  0  0  0  0
 31 32  1  0  0  0  0
 32 33  2  0  0  0  0
 32 84  1  0  0  0  0
 33 34  1  0  0  0  0
 33 45  1  0  0  0  0
 34 35  1  0  0  0  0
 34 43  2  0  0  0  0
 35 36  1  0  0  0  0
 35 37  2  0  0  0  0
 37 38  1  0  0  0  0
 37 39  1  0  0  0  0
 39 40  1  0  0  0  0
 39 41  2  0  0  0  0
 41 42  1  0  0  0  0
 41 43  1  0  0  0  0
 43 44  1  0  0  0  0
 45 46  2  0  0  0  0
 45 49  1  0  0  0  0
 46 47  1  0  0  0  0
 46108  1  0  0  0  0
 47 48  2  0  0  0  0
 47109  1  0  0  0  0
 48 49  1  0  0  0  0
 48 50  1  0  0  0  0
 49110  1  0  0  0  0
 50 51  1  0  0  0  0
 50 62  2  0  0  0  0
 51 52  1  0  0  0  0
 51 60  2  0  0  0  0
 52 53  1  0  0  0  0
 52 54  2  0  0  0  0
 54 55  1  0  0  0  0
 54 56  1  0  0  0  0
 56 57  1  0  0  0  0
 56 58  2  0  0  0  0
 58 59  1  0  0  0  0
 58 60  1  0  0  0  0
 60 61  1  0  0  0  0
 62 63  1  0  0  0  0
 62 83  1  0  0  0  0
 63 64  2  0  0  0  0
 64 65  1  0  0  0  0
 64 82  1  0  0  0  0
 65 66  1  0  0  0  0
 65 77  2  0  0  0  0
 66 67  1  0  0  0  0
 66 75  2  0  0  0  0
 67 68  1  0  0  0  0
 67 69  2  0  0  0  0
 69 70  1  0  0  0  0
 69 71  1  0  0  0  0
 71 72  1  0  0  0  0
 71 73  2  0  0  0  0
 73 74  1  0  0  0  0
 73 75  1  0  0  0  0
 75 76  1  0  0  0  0
 77 78  1  0  0  0  0
 77 81  1  0  0  0  0
 78 79  2  0  0  0  0
 78111  1  0  0  0  0
 79 80  1  0  0  0  0
 79112  1  0  0  0  0
 80 81  1  0  0  0  0
 81113  1  0  0  0  0
 82 83  2  0  0  0  0
 82114  1  0  0  0  0
 83115  1  0  0  0  0
 84 85  2  0  0  0  0
 84116  1  0  0  0  0
 85117  1  0  0  0  0
 86 87  1  0  0  0  0
 86118  1  0  0  0  0
 87119  1  0  0  0  0
M  END
$$$$
