0_3_328
 OpenBabel01312312313D

128139  0  0  0  0  0  0  0  0999 V2000
    1.1371   -0.1539    0.0986 C   0  0  0  0  0  0  0  0  0  0  0  0
    0.6277   -1.4510    0.3915 O   0  0  0  0  0  0  0  0  0  0  0  0
    1.0204   -2.4403   -0.4672 C   0  0  0  0  0  0  0  0  0  0  0  0
    0.0835   -3.4481   -0.6889 C   0  0  0  0  0  0  0  0  0  0  0  0
    0.3715   -4.5008   -1.5624 C   0  0  0  0  0  0  0  0  0  0  0  0
    1.5960   -4.5477   -2.2436 C   0  0  0  0  0  0  0  0  0  0  0  0
    1.8153   -5.4744   -3.3496 C   0  0  0  0  0  0  0  0  0  0  0  0
    2.9095   -6.2874   -3.4740 N   0  0  0  0  0  0  0  0  0  0  0  0
    2.7734   -6.8662   -4.6455 C   0  0  0  0  0  0  0  0  0  0  0  0
    1.6866   -6.3865   -5.3388 N   0  0  0  0  0  0  0  0  0  0  0  0
    1.6309   -6.4011   -6.7960 C   0  0  0  0  0  0  0  0  0  0  0  0
    0.6198   -7.3032   -7.4448 C   0  0  0  0  0  0  0  0  0  0  0  0
    0.9021   -8.0979   -8.3361 O   0  0  0  0  0  0  0  0  0  0  0  0
   -0.6442   -7.0449   -7.0307 O   0  0  0  0  0  0  0  0  0  0  0  0
   -1.6932   -7.4823   -7.9056 C   0  0  0  0  0  0  0  0  0  0  0  0
   -2.8428   -6.4819   -7.8550 C   0  0  0  0  0  0  0  0  0  0  0  0
   -2.6777   -5.2103   -8.5248 O   0  0  0  0  0  0  0  0  0  0  0  0
   -1.5497   -4.4707   -8.4047 C   0  0  0  0  0  0  0  0  0  0  0  0
   -0.4026   -4.8561   -8.5523 O   0  0  0  0  0  0  0  0  0  0  0  0
   -1.9146   -3.0979   -7.9623 C   0  0  0  0  0  0  0  0  0  0  0  0
   -0.9400   -2.2426   -7.4254 C   0  0  0  0  0  0  0  0  0  0  0  0
   -1.3273   -1.0892   -6.7239 C   0  0  0  0  0  0  0  0  0  0  0  0
   -2.6865   -0.8137   -6.5343 C   0  0  0  0  0  0  0  0  0  0  0  0
   -3.1627    0.4189   -5.8788 C   0  0  0  0  0  0  0  0  0  0  0  0
   -3.0956    1.5819   -6.7883 C   0  0  0  0  0  0  0  0  0  0  0  0
   -2.4907    2.6962   -6.5451 N   0  0  0  0  0  0  0  0  0  0  0  0
   -2.7838    3.5033   -7.6287 C   0  0  0  0  0  0  0  0  0  0  0  0
   -2.9081    4.8433   -7.4673 C   0  0  0  0  0  0  0  0  0  0  0  0
   -3.9710    5.6115   -8.1946 C   0  0  0  0  0  0  0  0  0  0  0  0
   -3.8508    6.9991   -8.3404 C   0  0  0  0  0  0  0  0  0  0  0  0
   -2.7267    7.6242   -7.9616 F   0  0  0  0  0  0  0  0  0  0  0  0
   -4.9151    7.7764   -8.8019 C   0  0  0  0  0  0  0  0  0  0  0  0
   -4.7980    9.1100   -8.8308 F   0  0  0  0  0  0  0  0  0  0  0  0
   -6.1119    7.1862   -9.1760 C   0  0  0  0  0  0  0  0  0  0  0  0
   -7.1409    7.9360   -9.5901 F   0  0  0  0  0  0  0  0  0  0  0  0
   -6.2601    5.8210   -9.0623 C   0  0  0  0  0  0  0  0  0  0  0  0
   -7.4205    5.2325   -9.3850 F   0  0  0  0  0  0  0  0  0  0  0  0
   -5.2262    5.0553   -8.5374 C   0  0  0  0  0  0  0  0  0  0  0  0
   -5.5291    3.7761   -8.2742 F   0  0  0  0  0  0  0  0  0  0  0  0
   -2.2619    5.3129   -6.2710 C   0  0  0  0  0  0  0  0  0  0  0  0
   -0.9892    5.1883   -5.7472 C   0  0  0  0  0  0  0  0  0  0  0  0
   -1.1593    5.1300   -4.3343 C   0  0  0  0  0  0  0  0  0  0  0  0
   -2.5183    5.2715   -4.0596 C   0  0  0  0  0  0  0  0  0  0  0  0
   -3.0568    5.7289   -5.2350 N   0  0  0  0  0  0  0  0  0  0  0  0
   -3.3082    4.9114   -2.9044 C   0  0  0  0  0  0  0  0  0  0  0  0
   -2.5673    4.4881   -1.6621 C   0  0  0  0  0  0  0  0  0  0  0  0
   -2.4925    3.1684   -1.1808 C   0  0  0  0  0  0  0  0  0  0  0  0
   -3.1007    2.1607   -1.8171 F   0  0  0  0  0  0  0  0  0  0  0  0
   -1.7371    2.8498   -0.0527 C   0  0  0  0  0  0  0  0  0  0  0  0
   -1.7024    1.5870    0.3976 F   0  0  0  0  0  0  0  0  0  0  0  0
   -0.9933    3.8272    0.5851 C   0  0  0  0  0  0  0  0  0  0  0  0
   -0.2278    3.5106    1.6391 F   0  0  0  0  0  0  0  0  0  0  0  0
   -1.0192    5.1272    0.1091 C   0  0  0  0  0  0  0  0  0  0  0  0
   -0.2630    6.0680    0.6914 F   0  0  0  0  0  0  0  0  0  0  0  0
   -1.8084    5.4566   -0.9900 C   0  0  0  0  0  0  0  0  0  0  0  0
   -1.7982    6.7250   -1.4295 F   0  0  0  0  0  0  0  0  0  0  0  0
   -4.6571    4.7135   -2.9358 C   0  0  0  0  0  0  0  0  0  0  0  0
   -5.2439    3.8208   -2.0623 N   0  0  0  0  0  0  0  0  0  0  0  0
   -6.1879    3.2736   -2.7721 C   0  0  0  0  0  0  0  0  0  0  0  0
   -6.5537    1.8536   -2.6780 C   0  0  0  0  0  0  0  0  0  0  0  0
   -7.8377    1.4033   -2.0903 C   0  0  0  0  0  0  0  0  0  0  0  0
   -8.5640    2.2327   -1.2179 C   0  0  0  0  0  0  0  0  0  0  0  0
   -7.9961    3.3291   -0.6958 F   0  0  0  0  0  0  0  0  0  0  0  0
   -9.9106    1.9955   -0.9270 C   0  0  0  0  0  0  0  0  0  0  0  0
  -10.5893    2.8593   -0.1587 F   0  0  0  0  0  0  0  0  0  0  0  0
  -10.5658    0.9117   -1.4848 C   0  0  0  0  0  0  0  0  0  0  0  0
  -11.8769    0.7308   -1.2726 F   0  0  0  0  0  0  0  0  0  0  0  0
   -9.8655    0.0421   -2.3016 C   0  0  0  0  0  0  0  0  0  0  0  0
  -10.4982   -0.9959   -2.8677 F   0  0  0  0  0  0  0  0  0  0  0  0
   -8.5213    0.2827   -2.6004 C   0  0  0  0  0  0  0  0  0  0  0  0
   -7.9287   -0.5432   -3.4755 F   0  0  0  0  0  0  0  0  0  0  0  0
   -5.5493    1.1575   -3.2613 C   0  0  0  0  0  0  0  0  0  0  0  0
   -5.1639   -0.1955   -2.9487 C   0  0  0  0  0  0  0  0  0  0  0  0
   -4.0956   -0.4926   -3.7100 C   0  0  0  0  0  0  0  0  0  0  0  0
   -3.8456    0.5277   -4.7094 C   0  0  0  0  0  0  0  0  0  0  0  0
   -4.6025    1.5634   -4.2109 N   0  0  0  0  0  0  0  0  0  0  0  0
   -6.6370    4.0365   -3.9239 C   0  0  0  0  0  0  0  0  0  0  0  0
   -5.6577    4.9415   -3.9717 C   0  0  0  0  0  0  0  0  0  0  0  0
   -3.3051    2.6532   -8.6655 C   0  0  0  0  0  0  0  0  0  0  0  0
   -3.6432    1.4727   -8.1512 C   0  0  0  0  0  0  0  0  0  0  0  0
   -3.6315   -1.5835   -7.2244 C   0  0  0  0  0  0  0  0  0  0  0  0
   -3.2535   -2.7083   -7.9416 C   0  0  0  0  0  0  0  0  0  0  0  0
    0.9879   -5.5760   -4.4670 C   0  0  0  0  0  0  0  0  0  0  0  0
   -0.3246   -4.9747   -4.6541 C   0  0  0  0  0  0  0  0  0  0  0  0
   -1.4647   -5.7858   -4.5954 C   0  0  0  0  0  0  0  0  0  0  0  0
   -2.7333   -5.2379   -4.4156 C   0  0  0  0  0  0  0  0  0  0  0  0
   -2.8678   -3.8741   -4.2408 C   0  0  0  0  0  0  0  0  0  0  0  0
   -4.0733   -3.3914   -3.8211 O   0  0  0  0  0  0  0  0  0  0  0  0
   -5.0683   -3.3128   -4.8396 C   0  0  0  0  0  0  0  0  0  0  0  0
   -1.7309   -3.0638   -4.2609 C   0  0  0  0  0  0  0  0  0  0  0  0
   -0.4716   -3.5981   -4.5232 C   0  0  0  0  0  0  0  0  0  0  0  0
    2.5580   -3.5699   -1.9643 C   0  0  0  0  0  0  0  0  0  0  0  0
    2.2726   -2.5212   -1.0776 C   0  0  0  0  0  0  0  0  0  0  0  0
    0.7739    0.5440    0.8238 H   0  0  0  0  0  0  0  0  0  0  0  0
    0.8137    0.1444   -0.8768 H   0  0  0  0  0  0  0  0  0  0  0  0
    2.2065   -0.1755    0.1287 H   0  0  0  0  0  0  0  0  0  0  0  0
   -0.8278   -3.4170   -0.2056 H   0  0  0  0  0  0  0  0  0  0  0  0
   -0.3233   -5.2500   -1.7071 H   0  0  0  0  0  0  0  0  0  0  0  0
    3.4085   -7.5963   -5.0041 H   0  0  0  0  0  0  0  0  0  0  0  0
    2.5966   -6.6957   -7.1502 H   0  0  0  0  0  0  0  0  0  0  0  0
    1.3250   -5.4119   -7.0660 H   0  0  0  0  0  0  0  0  0  0  0  0
   -2.0423   -8.4439   -7.5920 H   0  0  0  0  0  0  0  0  0  0  0  0
   -1.3203   -7.5490   -8.9063 H   0  0  0  0  0  0  0  0  0  0  0  0
   -3.0357   -6.2734   -6.8234 H   0  0  0  0  0  0  0  0  0  0  0  0
   -3.6334   -6.9620   -8.3929 H   0  0  0  0  0  0  0  0  0  0  0  0
    0.0613   -2.4612   -7.5461 H   0  0  0  0  0  0  0  0  0  0  0  0
   -0.6119   -0.4467   -6.3493 H   0  0  0  0  0  0  0  0  0  0  0  0
   -0.1008    5.1463   -6.2706 H   0  0  0  0  0  0  0  0  0  0  0  0
   -0.4088    5.0050   -3.6371 H   0  0  0  0  0  0  0  0  0  0  0  0
   -3.8773    6.2663   -5.3203 H   0  0  0  0  0  0  0  0  0  0  0  0
   -5.6224   -0.8204   -2.2673 H   0  0  0  0  0  0  0  0  0  0  0  0
   -3.5232   -1.3437   -3.5965 H   0  0  0  0  0  0  0  0  0  0  0  0
   -4.4895    2.4994   -4.4943 H   0  0  0  0  0  0  0  0  0  0  0  0
   -7.4664    3.9148   -4.5258 H   0  0  0  0  0  0  0  0  0  0  0  0
   -5.6137    5.7101   -4.6589 H   0  0  0  0  0  0  0  0  0  0  0  0
   -3.4023    2.9184   -9.6581 H   0  0  0  0  0  0  0  0  0  0  0  0
   -4.1529    0.6901   -8.5902 H   0  0  0  0  0  0  0  0  0  0  0  0
   -4.6259   -1.3088   -7.1986 H   0  0  0  0  0  0  0  0  0  0  0  0
   -3.9602   -3.2550   -8.4581 H   0  0  0  0  0  0  0  0  0  0  0  0
   -1.3634   -6.8087   -4.6870 H   0  0  0  0  0  0  0  0  0  0  0  0
   -3.5666   -5.8467   -4.4130 H   0  0  0  0  0  0  0  0  0  0  0  0
   -5.9750   -2.9262   -4.4233 H   0  0  0  0  0  0  0  0  0  0  0  0
   -5.2472   -4.2890   -5.2395 H   0  0  0  0  0  0  0  0  0  0  0  0
   -4.7292   -2.6643   -5.6202 H   0  0  0  0  0  0  0  0  0  0  0  0
   -1.8252   -2.0524   -4.0784 H   0  0  0  0  0  0  0  0  0  0  0  0
    0.3467   -2.9767   -4.6197 H   0  0  0  0  0  0  0  0  0  0  0  0
    3.4851   -3.6211   -2.4146 H   0  0  0  0  0  0  0  0  0  0  0  0
    2.9905   -1.8077   -0.8762 H   0  0  0  0  0  0  0  0  0  0  0  0
  1  2  1  0  0  0  0
  1 94  1  0  0  0  0
  1 95  1  0  0  0  0
  1 96  1  0  0  0  0
  2  3  1  0  0  0  0
  3  4  1  0  0  0  0
  3 93  2  0  0  0  0
  4  5  2  0  0  0  0
  4 97  1  0  0  0  0
  5  6  1  0  0  0  0
  5 98  1  0  0  0  0
  6  7  1  0  0  0  0
  6 92  2  0  0  0  0
  7  8  1  0  0  0  0
  7 83  2  0  0  0  0
  8  9  2  0  0  0  0
  9 10  1  0  0  0  0
  9 99  1  0  0  0  0
 10 11  1  0  0  0  0
 10 83  1  0  0  0  0
 11 12  1  0  0  0  0
 11100  1  0  0  0  0
 11101  1  0  0  0  0
 12 13  2  0  0  0  0
 12 14  1  0  0  0  0
 14 15  1  0  0  0  0
 15 16  1  0  0  0  0
 15102  1  0  0  0  0
 15103  1  0  0  0  0
 16 17  1  0  0  0  0
 16104  1  0  0  0  0
 16105  1  0  0  0  0
 17 18  1  0  0  0  0
 18 19  2  0  0  0  0
 18 20  1  0  0  0  0
 20 21  1  0  0  0  0
 20 82  2  0  0  0  0
 21 22  2  0  0  0  0
 21106  1  0  0  0  0
 22 23  1  0  0  0  0
 22107  1  0  0  0  0
 23 24  1  0  0  0  0
 23 81  2  0  0  0  0
 24 25  1  0  0  0  0
 24 75  2  0  0  0  0
 25 26  2  0  0  0  0
 25 80  1  0  0  0  0
 26 27  1  0  0  0  0
 27 28  2  0  0  0  0
 27 79  1  0  0  0  0
 28 29  1  0  0  0  0
 28 40  1  0  0  0  0
 29 30  1  0  0  0  0
 29 38  2  0  0  0  0
 30 31  1  0  0  0  0
 30 32  2  0  0  0  0
 32 33  1  0  0  0  0
 32 34  1  0  0  0  0
 34 35  1  0  0  0  0
 34 36  2  0  0  0  0
 36 37  1  0  0  0  0
 36 38  1  0  0  0  0
 38 39  1  0  0  0  0
 40 41  2  0  0  0  0
 40 44  1  0  0  0  0
 41 42  1  0  0  0  0
 41108  1  0  0  0  0
 42 43  2  0  0  0  0
 42109  1  0  0  0  0
 43 44  1  0  0  0  0
 43 45  1  0  0  0  0
 44110  1  0  0  0  0
 45 46  1  0  0  0  0
 45 57  2  0  0  0  0
 46 47  1  0  0  0  0
 46 55  2  0  0  0  0
 47 48  1  0  0  0  0
 47 49  2  0  0  0  0
 49 50  1  0  0  0  0
 49 51  1  0  0  0  0
 51 52  1  0  0  0  0
 51 53  2  0  0  0  0
 53 54  1  0  0  0  0
 53 55  1  0  0  0  0
 55 56  1  0  0  0  0
 57 58  1  0  0  0  0
 57 78  1  0  0  0  0
 58 59  2  0  0  0  0
 59 60  1  0  0  0  0
 59 77  1  0  0  0  0
 60 61  1  0  0  0  0
 60 72  2  0  0  0  0
 61 62  1  0  0  0  0
 61 70  2  0  0  0  0
 62 63  1  0  0  0  0
 62 64  2  0  0  0  0
 64 65  1  0  0  0  0
 64 66  1  0  0  0  0
 66 67  1  0  0  0  0
 66 68  2  0  0  0  0
 68 69  1  0  0  0  0
 68 70  1  0  0  0  0
 70 71  1  0  0  0  0
 72 73  1  0  0  0  0
 72 76  1  0  0  0  0
 73 74  2  0  0  0  0
 73111  1  0  0  0  0
 74 75  1  0  0  0  0
 74112  1  0  0  0  0
 75 76  1  0  0  0  0
 76113  1  0  0  0  0
 77 78  2  0  0  0  0
 77114  1  0  0  0  0
 78115  1  0  0  0  0
 79 80  2  0  0  0  0
 79116  1  0  0  0  0
 80117  1  0  0  0  0
 81 82  1  0  0  0  0
 81118  1  0  0  0  0
 82119  1  0  0  0  0
 83 84  1  0  0  0  0
 84 85  1  0  0  0  0
 84 91  2  0  0  0  0
 85 86  2  0  0  0  0
 85120  1  0  0  0  0
 86 87  1  0  0  0  0
 86121  1  0  0  0  0
 87 88  1  0  0  0  0
 87 90  2  0  0  0  0
 88 89  1  0  0  0  0
 89122  1  0  0  0  0
 89123  1  0  0  0  0
 89124  1  0  0  0  0
 90 91  1  0  0  0  0
 90125  1  0  0  0  0
 91126  1  0  0  0  0
 92 93  1  0  0  0  0
 92127  1  0  0  0  0
 93128  1  0  0  0  0
M  END
$$$$
