0_3_8839
 OpenBabel04152301363D

128138  0  0  1  0  0  0  0  0999 V2000
    0.5466    0.5621   -0.2478 C   0  0  0  0  0  0  0  0  0  0  0  0
    0.6763    0.8933    1.2313 C   0  0  0  0  0  0  0  0  0  0  0  0
    0.1307    2.2132    1.5167 N   0  3  0  0  0  0  0  0  0  0  0  0
    0.0311    2.5343    2.9609 C   0  0  1  0  0  0  0  0  0  0  0  0
    1.4118    2.3079    3.6950 C   0  0  0  0  0  0  0  0  0  0  0  0
    2.4874    2.6913    3.2443 O   0  0  0  0  0  0  0  0  0  0  0  0
    1.2613    1.7087    4.9094 O   0  0  0  0  0  0  0  0  0  0  0  0
    2.4026    1.6299    5.7896 C   0  0  0  0  0  0  0  0  0  0  0  0
    2.8887    0.1880    5.9145 C   0  0  0  0  0  0  0  0  0  0  0  0
    3.5158   -0.1924    4.6787 O   0  0  0  0  0  0  0  0  0  0  0  0
    3.0163   -1.2770    4.0494 C   0  0  0  0  0  0  0  0  0  0  0  0
    2.1750   -2.0590    4.4694 O   0  0  0  0  0  0  0  0  0  0  0  0
    3.5632   -1.3590    2.6782 C   0  0  0  0  0  0  0  0  0  0  0  0
    3.8241   -0.1942    1.9654 C   0  0  0  0  0  0  0  0  0  0  0  0
    3.9618   -0.2507    0.5792 C   0  0  0  0  0  0  0  0  0  0  0  0
    4.0455   -1.4716   -0.1070 C   0  0  0  0  0  0  0  0  0  0  0  0
    4.2110   -1.5175   -1.5975 C   0  0  0  0  0  0  0  0  0  0  0  0
    3.3621   -2.4384   -2.4472 C   0  0  0  0  0  0  0  0  0  0  0  0
    3.5627   -2.8533   -3.6751 N   0  0  0  0  0  0  0  0  0  0  0  0
    2.5432   -3.7592   -3.9480 C   0  0  0  0  0  0  0  0  0  0  0  0
    2.3384   -4.4846   -5.0751 C   0  0  0  0  0  0  0  0  0  0  0  0
    1.2575   -5.5287   -5.0648 C   0  0  0  0  0  0  0  0  0  0  0  0
   -0.1027   -5.2035   -5.1464 C   0  0  0  0  0  0  0  0  0  0  0  0
   -0.4909   -3.9200   -5.1397 F   0  0  0  0  0  0  0  0  0  0  0  0
   -1.0739   -6.2014   -5.2215 C   0  0  0  0  0  0  0  0  0  0  0  0
   -2.3714   -5.8697   -5.2747 F   0  0  0  0  0  0  0  0  0  0  0  0
   -0.7032   -7.5384   -5.2438 C   0  0  0  0  0  0  0  0  0  0  0  0
   -1.6376   -8.4948   -5.3372 F   0  0  0  0  0  0  0  0  0  0  0  0
    0.6367   -7.8832   -5.1694 C   0  0  0  0  0  0  0  0  0  0  0  0
    1.0001   -9.1729   -5.2072 F   0  0  0  0  0  0  0  0  0  0  0  0
    1.6070   -6.8901   -5.0675 C   0  0  0  0  0  0  0  0  0  0  0  0
    2.8960   -7.2567   -5.0005 F   0  0  0  0  0  0  0  0  0  0  0  0
    3.1176   -4.3533   -6.2815 C   0  0  0  0  0  0  0  0  0  0  0  0
    2.9708   -5.0273   -7.4830 C   0  0  0  0  0  0  0  0  0  0  0  0
    3.9573   -4.5751   -8.3660 C   0  0  0  0  0  0  0  0  0  0  0  0
    4.6913   -3.5888   -7.7294 C   0  0  0  0  0  0  0  0  0  0  0  0
    4.1704   -3.4675   -6.4501 N   0  0  0  0  0  0  0  0  0  0  0  0
    5.7894   -2.8145   -8.2435 C   0  0  0  0  0  0  0  0  0  0  0  0
    6.2944   -3.1252   -9.6189 C   0  0  0  0  0  0  0  0  0  0  0  0
    7.5142   -3.7886   -9.8151 C   0  0  0  0  0  0  0  0  0  0  0  0
    8.2699   -4.1369   -8.7628 F   0  0  0  0  0  0  0  0  0  0  0  0
    7.9826   -4.0552  -11.0984 C   0  0  0  0  0  0  0  0  0  0  0  0
    9.1732   -4.6475  -11.2656 F   0  0  0  0  0  0  0  0  0  0  0  0
    7.2290   -3.6901  -12.2044 C   0  0  0  0  0  0  0  0  0  0  0  0
    7.6835   -3.9440  -13.4392 F   0  0  0  0  0  0  0  0  0  0  0  0
    6.0104   -3.0508  -12.0311 C   0  0  0  0  0  0  0  0  0  0  0  0
    5.2791   -2.7028  -13.0988 F   0  0  0  0  0  0  0  0  0  0  0  0
    5.5499   -2.7618  -10.7501 C   0  0  0  0  0  0  0  0  0  0  0  0
    4.3766   -2.1267  -10.6120 F   0  0  0  0  0  0  0  0  0  0  0  0
    6.3925   -1.7951   -7.5865 C   0  0  0  0  0  0  0  0  0  0  0  0
    6.1258   -1.3032   -6.3183 N   0  0  0  0  0  0  0  0  0  0  0  0
    6.9935   -0.3435   -6.1179 C   0  0  0  0  0  0  0  0  0  0  0  0
    7.1933    0.5062   -4.9016 C   0  0  0  0  0  0  0  0  0  0  0  0
    8.2744    1.5249   -4.8407 C   0  0  0  0  0  0  0  0  0  0  0  0
    8.1786    2.7249   -5.5545 C   0  0  0  0  0  0  0  0  0  0  0  0
    7.1418    2.9330   -6.3791 F   0  0  0  0  0  0  0  0  0  0  0  0
    9.1575    3.7096   -5.4342 C   0  0  0  0  0  0  0  0  0  0  0  0
    9.0561    4.8417   -6.1435 F   0  0  0  0  0  0  0  0  0  0  0  0
   10.2347    3.5228   -4.5793 C   0  0  0  0  0  0  0  0  0  0  0  0
   11.1572    4.4842   -4.4394 F   0  0  0  0  0  0  0  0  0  0  0  0
   10.3542    2.3389   -3.8692 C   0  0  0  0  0  0  0  0  0  0  0  0
   11.3786    2.1618   -3.0239 F   0  0  0  0  0  0  0  0  0  0  0  0
    9.3974    1.3399   -4.0174 C   0  0  0  0  0  0  0  0  0  0  0  0
    9.5364    0.2050   -3.3158 F   0  0  0  0  0  0  0  0  0  0  0  0
    6.4497    0.2727   -3.8036 C   0  0  0  0  0  0  0  0  0  0  0  0
    6.6650    0.9255   -2.5209 C   0  0  0  0  0  0  0  0  0  0  0  0
    5.9621    0.2753   -1.5867 C   0  0  0  0  0  0  0  0  0  0  0  0
    5.1087   -0.7272   -2.2258 C   0  0  0  0  0  0  0  0  0  0  0  0
    5.4506   -0.6381   -3.5568 N   0  0  0  0  0  0  0  0  0  0  0  0
    7.9081   -0.1099   -7.2430 C   0  0  0  0  0  0  0  0  0  0  0  0
    7.4862   -1.0096   -8.1204 C   0  0  0  0  0  0  0  0  0  0  0  0
    1.7060   -3.8157   -2.7689 C   0  0  0  0  0  0  0  0  0  0  0  0
    2.1353   -2.9747   -1.8364 C   0  0  0  0  0  0  0  0  0  0  0  0
    3.9331   -2.6459    0.6569 C   0  0  0  0  0  0  0  0  0  0  0  0
    3.6327   -2.5910    2.0261 C   0  0  0  0  0  0  0  0  0  0  0  0
   -0.2573    4.0417    3.0790 C   0  0  0  0  0  0  0  0  0  0  0  0
   -0.7587    4.2116    4.5020 C   0  0  0  0  0  0  0  0  0  0  0  0
   -1.4918    2.9129    4.8305 C   0  0  0  0  0  0  0  0  0  0  0  0
   -1.1767    1.8920    3.6947 C   0  0  1  0  0  0  0  0  0  0  0  0
   -2.5018    1.6412    2.9288 C   0  0  0  0  0  0  0  0  0  0  0  0
   -2.6068    0.5816    1.8265 C   0  0  0  0  0  0  0  0  0  0  0  0
   -2.1981   -0.7958    2.0762 N   0  0  0  0  0  0  0  0  0  0  0  0
   -2.2453   -1.7253    1.0654 C   0  0  0  0  0  0  0  0  0  0  0  0
   -2.5691   -1.5360   -0.0970 O   0  0  0  0  0  0  0  0  0  0  0  0
   -1.9304   -3.0779    1.6337 C   0  0  0  0  0  0  0  0  0  0  0  0
   -1.2917   -2.7328    2.9582 C   0  0  0  0  0  0  0  0  0  0  0  0
   -1.9137   -1.4010    3.2661 C   0  0  0  0  0  0  0  0  0  0  0  0
   -2.1050   -0.9826    4.3965 O   0  0  0  0  0  0  0  0  0  0  0  0
    0.9533   -0.4102   -0.4326 H   0  0  0  0  0  0  0  0  0  0  0  0
    1.0815    1.2879   -0.8241 H   0  0  0  0  0  0  0  0  0  0  0  0
   -0.4862    0.5756   -0.5271 H   0  0  0  0  0  0  0  0  0  0  0  0
    1.7104    0.8747    1.5054 H   0  0  0  0  0  0  0  0  0  0  0  0
    0.1281    0.1671    1.7942 H   0  0  0  0  0  0  0  0  0  0  0  0
   -0.8043    2.2663    1.1126 H   0  0  0  0  0  0  0  0  0  0  0  0
    0.7774    2.8899    1.1114 H   0  0  0  0  0  0  0  0  0  0  0  0
    2.1255    1.9923    6.7575 H   0  0  0  0  0  0  0  0  0  0  0  0
    3.1929    2.2255    5.3826 H   0  0  0  0  0  0  0  0  0  0  0  0
    2.0578   -0.4569    6.1107 H   0  0  0  0  0  0  0  0  0  0  0  0
    3.5882    0.1063    6.7200 H   0  0  0  0  0  0  0  0  0  0  0  0
    3.9153    0.7072    2.4596 H   0  0  0  0  0  0  0  0  0  0  0  0
    4.0033    0.6300    0.0429 H   0  0  0  0  0  0  0  0  0  0  0  0
    2.2555   -5.7414   -7.6912 H   0  0  0  0  0  0  0  0  0  0  0  0
    4.1114   -4.9180   -9.3271 H   0  0  0  0  0  0  0  0  0  0  0  0
    4.4997   -2.8442   -5.7629 H   0  0  0  0  0  0  0  0  0  0  0  0
    7.2608    1.7524   -2.3589 H   0  0  0  0  0  0  0  0  0  0  0  0
    6.0137    0.4533   -0.5715 H   0  0  0  0  0  0  0  0  0  0  0  0
    5.0215   -1.1742   -4.2623 H   0  0  0  0  0  0  0  0  0  0  0  0
    8.6763    0.5740   -7.3281 H   0  0  0  0  0  0  0  0  0  0  0  0
    7.8860   -1.1345   -9.0636 H   0  0  0  0  0  0  0  0  0  0  0  0
    0.8828   -4.4297   -2.6666 H   0  0  0  0  0  0  0  0  0  0  0  0
    1.7167   -2.7537   -0.9193 H   0  0  0  0  0  0  0  0  0  0  0  0
    4.0737   -3.5624    0.2038 H   0  0  0  0  0  0  0  0  0  0  0  0
    3.4629   -3.4627    2.5518 H   0  0  0  0  0  0  0  0  0  0  0  0
   -1.0045    4.3419    2.3744 H   0  0  0  0  0  0  0  0  0  0  0  0
    0.6037    4.6423    2.8722 H   0  0  0  0  0  0  0  0  0  0  0  0
   -1.4264    5.0452    4.5668 H   0  0  0  0  0  0  0  0  0  0  0  0
    0.0417    4.4012    5.1863 H   0  0  0  0  0  0  0  0  0  0  0  0
   -2.5457    3.0912    4.8785 H   0  0  0  0  0  0  0  0  0  0  0  0
   -1.1726    2.5310    5.7777 H   0  0  0  0  0  0  0  0  0  0  0  0
   -0.8721    0.8999    3.9553 H   0  0  0  0  0  0  0  0  0  0  0  0
   -2.7690    2.5734    2.4765 H   0  0  0  0  0  0  0  0  0  0  0  0
   -3.1337    1.2387    3.6927 H   0  0  0  0  0  0  0  0  0  0  0  0
   -2.0140    0.9326    1.0078 H   0  0  0  0  0  0  0  0  0  0  0  0
   -3.6631    0.4940    1.6799 H   0  0  0  0  0  0  0  0  0  0  0  0
   -1.2509   -3.6136    1.0042 H   0  0  0  0  0  0  0  0  0  0  0  0
   -2.7866   -3.7132    1.7247 H   0  0  0  0  0  0  0  0  0  0  0  0
   -0.2284   -2.6540    2.8684 H   0  0  0  0  0  0  0  0  0  0  0  0
   -1.4493   -3.4691    3.7184 H   0  0  0  0  0  0  0  0  0  0  0  0
  1  2  1  0  0  0  0
  1 89  1  0  0  0  0
  1 90  1  0  0  0  0
  1 91  1  0  0  0  0
  2  3  1  0  0  0  0
  2 92  1  0  0  0  0
  2 93  1  0  0  0  0
  3  4  1  0  0  0  0
  3 94  1  0  0  0  0
  3 95  1  0  0  0  0
  4  5  1  1  0  0  0
  4 76  1  0  0  0  0
  4 79  1  0  0  0  0
  5  6  2  0  0  0  0
  5  7  1  0  0  0  0
  7  8  1  0  0  0  0
  8  9  1  0  0  0  0
  8 96  1  0  0  0  0
  8 97  1  0  0  0  0
  9 10  1  0  0  0  0
  9 98  1  0  0  0  0
  9 99  1  0  0  0  0
 10 11  1  0  0  0  0
 11 12  2  0  0  0  0
 11 13  1  0  0  0  0
 13 14  1  0  0  0  0
 13 75  2  0  0  0  0
 14 15  2  0  0  0  0
 14100  1  0  0  0  0
 15 16  1  0  0  0  0
 15101  1  0  0  0  0
 16 17  1  0  0  0  0
 16 74  2  0  0  0  0
 17 18  1  0  0  0  0
 17 68  2  0  0  0  0
 18 19  2  0  0  0  0
 18 73  1  0  0  0  0
 19 20  1  0  0  0  0
 20 21  2  0  0  0  0
 20 72  1  0  0  0  0
 21 22  1  0  0  0  0
 21 33  1  0  0  0  0
 22 23  1  0  0  0  0
 22 31  2  0  0  0  0
 23 24  1  0  0  0  0
 23 25  2  0  0  0  0
 25 26  1  0  0  0  0
 25 27  1  0  0  0  0
 27 28  1  0  0  0  0
 27 29  2  0  0  0  0
 29 30  1  0  0  0  0
 29 31  1  0  0  0  0
 31 32  1  0  0  0  0
 33 34  2  0  0  0  0
 33 37  1  0  0  0  0
 34 35  1  0  0  0  0
 34102  1  0  0  0  0
 35 36  2  0  0  0  0
 35103  1  0  0  0  0
 36 37  1  0  0  0  0
 36 38  1  0  0  0  0
 37104  1  0  0  0  0
 38 39  1  0  0  0  0
 38 50  2  0  0  0  0
 39 40  1  0  0  0  0
 39 48  2  0  0  0  0
 40 41  1  0  0  0  0
 40 42  2  0  0  0  0
 42 43  1  0  0  0  0
 42 44  1  0  0  0  0
 44 45  1  0  0  0  0
 44 46  2  0  0  0  0
 46 47  1  0  0  0  0
 46 48  1  0  0  0  0
 48 49  1  0  0  0  0
 50 51  1  0  0  0  0
 50 71  1  0  0  0  0
 51 52  2  0  0  0  0
 52 53  1  0  0  0  0
 52 70  1  0  0  0  0
 53 54  1  0  0  0  0
 53 65  2  0  0  0  0
 54 55  1  0  0  0  0
 54 63  2  0  0  0  0
 55 56  1  0  0  0  0
 55 57  2  0  0  0  0
 57 58  1  0  0  0  0
 57 59  1  0  0  0  0
 59 60  1  0  0  0  0
 59 61  2  0  0  0  0
 61 62  1  0  0  0  0
 61 63  1  0  0  0  0
 63 64  1  0  0  0  0
 65 66  1  0  0  0  0
 65 69  1  0  0  0  0
 66 67  2  0  0  0  0
 66105  1  0  0  0  0
 67 68  1  0  0  0  0
 67106  1  0  0  0  0
 68 69  1  0  0  0  0
 69107  1  0  0  0  0
 70 71  2  0  0  0  0
 70108  1  0  0  0  0
 71109  1  0  0  0  0
 72 73  2  0  0  0  0
 72110  1  0  0  0  0
 73111  1  0  0  0  0
 74 75  1  0  0  0  0
 74112  1  0  0  0  0
 75113  1  0  0  0  0
 76 77  1  0  0  0  0
 76114  1  0  0  0  0
 76115  1  0  0  0  0
 77 78  1  0  0  0  0
 77116  1  0  0  0  0
 77117  1  0  0  0  0
 78 79  1  0  0  0  0
 78118  1  0  0  0  0
 78119  1  0  0  0  0
 79 80  1  0  0  0  0
 79120  1  1  0  0  0
 80 81  1  0  0  0  0
 80121  1  0  0  0  0
 80122  1  0  0  0  0
 81 82  1  0  0  0  0
 81123  1  0  0  0  0
 81124  1  0  0  0  0
 82 83  1  0  0  0  0
 82 87  1  0  0  0  0
 83 84  2  0  0  0  0
 83 85  1  0  0  0  0
 85 86  1  0  0  0  0
 85125  1  0  0  0  0
 85126  1  0  0  0  0
 86 87  1  0  0  0  0
 86127  1  0  0  0  0
 86128  1  0  0  0  0
 87 88  2  0  0  0  0
M  CHG  1   3   1
M  END
$$$$
