0_3_4147
 OpenBabel04152301363D

127136  0  0  1  0  0  0  0  0999 V2000
   -3.0143   -0.5030    6.7417 C   0  0  0  0  0  0  0  0  0  0  0  0
   -1.8530    0.4569    6.4892 C   0  0  0  0  0  0  0  0  0  0  0  0
   -0.6790   -0.1563    5.8441 N   0  3  2  0  0  0  0  0  0  0  0  0
    0.5099    0.6890    6.0863 C   0  0  0  0  0  0  0  0  0  0  0  0
    0.5619    1.6137    4.8955 C   0  0  0  0  0  0  0  0  0  0  0  0
    0.2396    0.6671    3.7632 C   0  0  0  0  0  0  0  0  0  0  0  0
   -0.7256   -0.3697    4.3511 C   0  0  2  0  0  0  0  0  0  0  0  0
   -2.1404   -0.4867    3.7083 C   0  0  0  0  0  0  0  0  0  0  0  0
   -2.3698   -0.6254    2.2576 N   0  3  1  0  0  0  0  0  0  0  0  0
   -3.7263   -1.1539    2.0245 C   0  0  0  0  0  0  0  0  0  0  0  0
   -2.1423    0.5670    1.4275 C   0  0  0  0  0  0  0  0  0  0  0  0
   -2.7522    1.9706    1.7081 C   0  0  2  0  0  0  0  0  0  0  0  0
   -1.7668    2.9904    2.1454 N   0  3  0  0  0  0  0  0  0  0  0  0
   -4.0331    2.0218    2.5619 C   0  0  0  0  0  0  0  0  0  0  0  0
   -5.1501    1.8071    2.1035 O   0  0  0  0  0  0  0  0  0  0  0  0
   -3.7768    2.3223    3.8715 O   0  0  0  0  0  0  0  0  0  0  0  0
   -4.8998    2.3102    4.7768 C   0  0  0  0  0  0  0  0  0  0  0  0
   -5.2080    3.7117    5.3001 C   0  0  0  0  0  0  0  0  0  0  0  0
   -5.5380    4.5844    4.2126 O   0  0  0  0  0  0  0  0  0  0  0  0
   -4.4879    5.2609    3.6878 C   0  0  0  0  0  0  0  0  0  0  0  0
   -3.3518    5.3375    4.1221 O   0  0  0  0  0  0  0  0  0  0  0  0
   -4.9108    5.7448    2.3691 C   0  0  0  0  0  0  0  0  0  0  0  0
   -4.3185    5.1758    1.2411 C   0  0  0  0  0  0  0  0  0  0  0  0
   -4.7512    5.5106   -0.0309 C   0  0  0  0  0  0  0  0  0  0  0  0
   -5.7517    6.4702   -0.1719 C   0  0  0  0  0  0  0  0  0  0  0  0
   -6.1428    6.9214   -1.5173 C   0  0  0  0  0  0  0  0  0  0  0  0
   -5.6331    8.2412   -1.9948 C   0  0  0  0  0  0  0  0  0  0  0  0
   -6.0073    8.9508   -3.0236 N   0  0  0  0  0  0  0  0  0  0  0  0
   -5.2426   10.1069   -2.9728 C   0  0  0  0  0  0  0  0  0  0  0  0
   -5.2712   11.1557   -3.8260 C   0  0  0  0  0  0  0  0  0  0  0  0
   -4.3933   12.3304   -3.5122 C   0  0  0  0  0  0  0  0  0  0  0  0
   -2.9955   12.2643   -3.6107 C   0  0  0  0  0  0  0  0  0  0  0  0
   -2.3968   11.1184   -3.9690 F   0  0  0  0  0  0  0  0  0  0  0  0
   -2.2020   13.3643   -3.2932 C   0  0  0  0  0  0  0  0  0  0  0  0
   -0.8665   13.2613   -3.3416 F   0  0  0  0  0  0  0  0  0  0  0  0
   -2.7898   14.5602   -2.9089 C   0  0  0  0  0  0  0  0  0  0  0  0
   -2.0250   15.6190   -2.6088 F   0  0  0  0  0  0  0  0  0  0  0  0
   -4.1702   14.6552   -2.8264 C   0  0  0  0  0  0  0  0  0  0  0  0
   -4.7415   15.8124   -2.4651 F   0  0  0  0  0  0  0  0  0  0  0  0
   -4.9645   13.5482   -3.1115 C   0  0  0  0  0  0  0  0  0  0  0  0
   -6.2960   13.6660   -2.9969 F   0  0  0  0  0  0  0  0  0  0  0  0
   -6.1344   11.2148   -4.9752 C   0  0  0  0  0  0  0  0  0  0  0  0
   -6.2505   12.2174   -5.9187 C   0  0  0  0  0  0  0  0  0  0  0  0
   -7.2679   11.8577   -6.8081 C   0  0  0  0  0  0  0  0  0  0  0  0
   -7.7433   10.6025   -6.4572 C   0  0  0  0  0  0  0  0  0  0  0  0
   -7.0388   10.2207   -5.3288 N   0  0  0  0  0  0  0  0  0  0  0  0
   -8.7703    9.8207   -7.1009 C   0  0  0  0  0  0  0  0  0  0  0  0
   -9.4519   10.4345   -8.2883 C   0  0  0  0  0  0  0  0  0  0  0  0
  -10.7760   10.8900   -8.2204 C   0  0  0  0  0  0  0  0  0  0  0  0
  -11.4961   10.7096   -7.1028 F   0  0  0  0  0  0  0  0  0  0  0  0
  -11.3749   11.5068   -9.3147 C   0  0  0  0  0  0  0  0  0  0  0  0
  -12.6545   11.8986   -9.2427 F   0  0  0  0  0  0  0  0  0  0  0  0
  -10.6522   11.7111  -10.4811 C   0  0  0  0  0  0  0  0  0  0  0  0
  -11.2249   12.3226  -11.5268 F   0  0  0  0  0  0  0  0  0  0  0  0
   -9.3375   11.2787  -10.5653 C   0  0  0  0  0  0  0  0  0  0  0  0
   -8.6319   11.4915  -11.6845 F   0  0  0  0  0  0  0  0  0  0  0  0
   -8.7467   10.6310   -9.4855 C   0  0  0  0  0  0  0  0  0  0  0  0
   -7.4747   10.2191   -9.5971 F   0  0  0  0  0  0  0  0  0  0  0  0
   -9.1600    8.5728   -6.7397 C   0  0  0  0  0  0  0  0  0  0  0  0
   -8.6927    7.7708   -5.7083 N   0  0  0  0  0  0  0  0  0  0  0  0
   -9.3992    6.6658   -5.7580 C   0  0  0  0  0  0  0  0  0  0  0  0
   -9.3139    5.4431   -4.8815 C   0  0  0  0  0  0  0  0  0  0  0  0
  -10.2213    4.2822   -5.0795 C   0  0  0  0  0  0  0  0  0  0  0  0
  -10.1269    3.4792   -6.2237 C   0  0  0  0  0  0  0  0  0  0  0  0
   -9.2199    3.7659   -7.1691 F   0  0  0  0  0  0  0  0  0  0  0  0
  -10.9899    2.4026   -6.4226 C   0  0  0  0  0  0  0  0  0  0  0  0
  -10.9077    1.6809   -7.5485 F   0  0  0  0  0  0  0  0  0  0  0  0
  -11.9436    2.0875   -5.4664 C   0  0  0  0  0  0  0  0  0  0  0  0
  -12.7691    1.0493   -5.6563 F   0  0  0  0  0  0  0  0  0  0  0  0
  -12.0462    2.8565   -4.3179 C   0  0  0  0  0  0  0  0  0  0  0  0
  -12.9567    2.5481   -3.3843 F   0  0  0  0  0  0  0  0  0  0  0  0
  -11.2055    3.9524   -4.1338 C   0  0  0  0  0  0  0  0  0  0  0  0
  -11.3437    4.6887   -3.0213 F   0  0  0  0  0  0  0  0  0  0  0  0
   -8.4238    5.4425   -3.8717 C   0  0  0  0  0  0  0  0  0  0  0  0
   -8.2487    4.3824   -2.8836 C   0  0  0  0  0  0  0  0  0  0  0  0
   -7.4152    4.8169   -1.9241 C   0  0  0  0  0  0  0  0  0  0  0  0
   -6.9500    6.1593   -2.2731 C   0  0  0  0  0  0  0  0  0  0  0  0
   -7.5422    6.4197   -3.4805 N   0  0  0  0  0  0  0  0  0  0  0  0
  -10.4138    6.6510   -6.8192 C   0  0  0  0  0  0  0  0  0  0  0  0
  -10.2003    7.8184   -7.4103 C   0  0  0  0  0  0  0  0  0  0  0  0
   -4.3877   10.0085   -1.8107 C   0  0  0  0  0  0  0  0  0  0  0  0
   -4.5590    8.8499   -1.1927 C   0  0  0  0  0  0  0  0  0  0  0  0
   -6.3180    7.0804    0.9632 C   0  0  0  0  0  0  0  0  0  0  0  0
   -5.9042    6.7106    2.2409 C   0  0  0  0  0  0  0  0  0  0  0  0
   -3.8183    0.0253    7.2101 H   0  0  0  0  0  0  0  0  0  0  0  0
   -2.6885   -1.2966    7.3812 H   0  0  0  0  0  0  0  0  0  0  0  0
   -3.3495   -0.9100    5.8106 H   0  0  0  0  0  0  0  0  0  0  0  0
   -1.5435    0.8610    7.4304 H   0  0  0  0  0  0  0  0  0  0  0  0
   -2.2168    1.2011    5.8119 H   0  0  0  0  0  0  0  0  0  0  0  0
   -0.6530   -1.0833    6.2688 H   0  0  0  0  0  0  0  0  0  0  0  0
    1.3953    0.0906    6.1399 H   0  0  0  0  0  0  0  0  0  0  0  0
    0.4504    1.2205    7.0130 H   0  0  0  0  0  0  0  0  0  0  0  0
    1.5337    2.0460    4.7787 H   0  0  0  0  0  0  0  0  0  0  0  0
   -0.1002    2.4514    4.9650 H   0  0  0  0  0  0  0  0  0  0  0  0
    1.1302    0.1901    3.4108 H   0  0  0  0  0  0  0  0  0  0  0  0
   -0.1922    1.1808    2.9298 H   0  0  0  0  0  0  0  0  0  0  0  0
   -0.3969   -1.3550    4.0941 H   0  0  0  0  0  0  0  0  0  0  0  0
   -2.6692    0.3951    4.0043 H   0  0  0  0  0  0  0  0  0  0  0  0
   -2.4489   -1.4490    4.0599 H   0  0  0  0  0  0  0  0  0  0  0  0
   -1.6459   -1.2739    1.9481 H   0  0  0  0  0  0  0  0  0  0  0  0
   -4.4496   -0.4420    2.3636 H   0  0  0  0  0  0  0  0  0  0  0  0
   -3.8491   -2.0708    2.5621 H   0  0  0  0  0  0  0  0  0  0  0  0
   -3.8647   -1.3324    0.9786 H   0  0  0  0  0  0  0  0  0  0  0  0
   -2.4749    0.3008    0.4460 H   0  0  0  0  0  0  0  0  0  0  0  0
   -1.1099    0.7566    1.6352 H   0  0  0  0  0  0  0  0  0  0  0  0
   -3.0818    2.2375    0.7258 H   0  0  0  0  0  0  0  0  0  0  0  0
   -1.4336    2.7616    3.0819 H   0  0  0  0  0  0  0  0  0  0  0  0
   -2.2105    3.9088    2.1573 H   0  0  0  0  0  0  0  0  0  0  0  0
   -0.9790    3.0017    1.4976 H   0  0  0  0  0  0  0  0  0  0  0  0
   -4.6729    1.6714    5.6047 H   0  0  0  0  0  0  0  0  0  0  0  0
   -5.7571    1.9527    4.2456 H   0  0  0  0  0  0  0  0  0  0  0  0
   -4.3501    4.0943    5.8125 H   0  0  0  0  0  0  0  0  0  0  0  0
   -6.0404    3.6589    5.9704 H   0  0  0  0  0  0  0  0  0  0  0  0
   -3.5491    4.4977    1.3562 H   0  0  0  0  0  0  0  0  0  0  0  0
   -4.3393    5.0567   -0.8612 H   0  0  0  0  0  0  0  0  0  0  0  0
   -5.6857   13.0801   -5.9598 H   0  0  0  0  0  0  0  0  0  0  0  0
   -7.6088   12.4312   -7.5954 H   0  0  0  0  0  0  0  0  0  0  0  0
   -7.1604    9.3704   -4.8477 H   0  0  0  0  0  0  0  0  0  0  0  0
   -8.6927    3.4514   -2.9168 H   0  0  0  0  0  0  0  0  0  0  0  0
   -7.1467    4.2897   -1.0785 H   0  0  0  0  0  0  0  0  0  0  0  0
   -7.3547    7.2258   -4.0137 H   0  0  0  0  0  0  0  0  0  0  0  0
  -11.1099    5.9234   -7.0454 H   0  0  0  0  0  0  0  0  0  0  0  0
  -10.7111    8.1488   -8.2439 H   0  0  0  0  0  0  0  0  0  0  0  0
   -3.7314   10.7434   -1.5038 H   0  0  0  0  0  0  0  0  0  0  0  0
   -4.0688    8.4730   -0.3665 H   0  0  0  0  0  0  0  0  0  0  0  0
   -7.0434    7.8054    0.8482 H   0  0  0  0  0  0  0  0  0  0  0  0
   -6.3264    7.1447    3.0765 H   0  0  0  0  0  0  0  0  0  0  0  0
  1  2  1  0  0  0  0
  1 85  1  0  0  0  0
  1 86  1  0  0  0  0
  1 87  1  0  0  0  0
  2  3  1  0  0  0  0
  2 88  1  0  0  0  0
  2 89  1  0  0  0  0
  3  4  1  0  0  0  0
  3  7  1  0  0  0  0
  3 90  1  1  0  0  0
  4  5  1  0  0  0  0
  4 91  1  0  0  0  0
  4 92  1  0  0  0  0
  5  6  1  0  0  0  0
  5 93  1  0  0  0  0
  5 94  1  0  0  0  0
  6  7  1  0  0  0  0
  6 95  1  0  0  0  0
  6 96  1  0  0  0  0
  7  8  1  0  0  0  0
  7 97  1  6  0  0  0
  8  9  1  0  0  0  0
  8 98  1  0  0  0  0
  8 99  1  0  0  0  0
  9 10  1  0  0  0  0
  9 11  1  0  0  0  0
  9100  1  6  0  0  0
 10101  1  0  0  0  0
 10102  1  0  0  0  0
 10103  1  0  0  0  0
 11104  1  0  0  0  0
 11105  1  0  0  0  0
 12 14  1  0  0  0  0
 12 13  1  0  0  0  0
 12 11  1  0  0  0  0
 12106  1  6  0  0  0
 13107  1  0  0  0  0
 13108  1  0  0  0  0
 13109  1  0  0  0  0
 14 15  2  0  0  0  0
 14 16  1  0  0  0  0
 16 17  1  0  0  0  0
 17 18  1  0  0  0  0
 17110  1  0  0  0  0
 17111  1  0  0  0  0
 18 19  1  0  0  0  0
 18112  1  0  0  0  0
 18113  1  0  0  0  0
 19 20  1  0  0  0  0
 20 21  2  0  0  0  0
 20 22  1  0  0  0  0
 22 23  1  0  0  0  0
 22 84  2  0  0  0  0
 23 24  2  0  0  0  0
 23114  1  0  0  0  0
 24 25  1  0  0  0  0
 24115  1  0  0  0  0
 25 26  1  0  0  0  0
 25 83  2  0  0  0  0
 26 27  1  0  0  0  0
 26 77  2  0  0  0  0
 27 28  2  0  0  0  0
 27 82  1  0  0  0  0
 28 29  1  0  0  0  0
 29 30  2  0  0  0  0
 29 81  1  0  0  0  0
 30 31  1  0  0  0  0
 30 42  1  0  0  0  0
 31 32  1  0  0  0  0
 31 40  2  0  0  0  0
 32 33  1  0  0  0  0
 32 34  2  0  0  0  0
 34 35  1  0  0  0  0
 34 36  1  0  0  0  0
 36 37  1  0  0  0  0
 36 38  2  0  0  0  0
 38 39  1  0  0  0  0
 38 40  1  0  0  0  0
 40 41  1  0  0  0  0
 42 43  2  0  0  0  0
 42 46  1  0  0  0  0
 43 44  1  0  0  0  0
 43116  1  0  0  0  0
 44 45  2  0  0  0  0
 44117  1  0  0  0  0
 45 46  1  0  0  0  0
 45 47  1  0  0  0  0
 46118  1  0  0  0  0
 47 48  1  0  0  0  0
 47 59  2  0  0  0  0
 48 49  1  0  0  0  0
 48 57  2  0  0  0  0
 49 50  1  0  0  0  0
 49 51  2  0  0  0  0
 51 52  1  0  0  0  0
 51 53  1  0  0  0  0
 53 54  1  0  0  0  0
 53 55  2  0  0  0  0
 55 56  1  0  0  0  0
 55 57  1  0  0  0  0
 57 58  1  0  0  0  0
 59 60  1  0  0  0  0
 59 80  1  0  0  0  0
 60 61  2  0  0  0  0
 61 62  1  0  0  0  0
 61 79  1  0  0  0  0
 62 63  1  0  0  0  0
 62 74  2  0  0  0  0
 63 64  1  0  0  0  0
 63 72  2  0  0  0  0
 64 65  1  0  0  0  0
 64 66  2  0  0  0  0
 66 67  1  0  0  0  0
 66 68  1  0  0  0  0
 68 69  1  0  0  0  0
 68 70  2  0  0  0  0
 70 71  1  0  0  0  0
 70 72  1  0  0  0  0
 72 73  1  0  0  0  0
 74 75  1  0  0  0  0
 74 78  1  0  0  0  0
 75 76  2  0  0  0  0
 75119  1  0  0  0  0
 76 77  1  0  0  0  0
 76120  1  0  0  0  0
 77 78  1  0  0  0  0
 78121  1  0  0  0  0
 79 80  2  0  0  0  0
 79122  1  0  0  0  0
 80123  1  0  0  0  0
 81 82  2  0  0  0  0
 81124  1  0  0  0  0
 82125  1  0  0  0  0
 83 84  1  0  0  0  0
 83126  1  0  0  0  0
 84127  1  0  0  0  0
M  CHG  3   3   1   9   1  13   1
M  END
$$$$
