0_3_6810
 OpenBabel04152301373D

129140  0  0  0  0  0  0  0  0999 V2000
    0.0029   -0.1711   -0.1666 C   0  0  0  0  0  0  0  0  0  0  0  0
    1.3335   -0.1994   -0.6587 O   0  0  0  0  0  0  0  0  0  0  0  0
    1.5829    0.2337   -1.9314 C   0  0  0  0  0  0  0  0  0  0  0  0
    0.5673    0.4097   -2.8883 C   0  0  0  0  0  0  0  0  0  0  0  0
    0.8417    0.6690   -4.2340 C   0  0  0  0  0  0  0  0  0  0  0  0
   -0.1560    0.7563   -5.3260 C   0  0  0  0  0  0  0  0  0  0  0  0
   -1.2890    0.0723   -5.6025 C   0  0  0  0  0  0  0  0  0  0  0  0
   -1.8811    0.2684   -6.9695 C   0  0  0  0  0  0  0  0  0  0  0  0
   -1.5817    1.2602   -7.6342 O   0  0  0  0  0  0  0  0  0  0  0  0
   -2.7020   -0.7787   -7.4042 N   0  0  0  0  0  0  0  0  0  0  0  0
   -3.4897   -0.6272   -8.6129 C   0  0  0  0  0  0  0  0  0  0  0  0
   -4.0397    0.6304   -8.9385 C   0  0  0  0  0  0  0  0  0  0  0  0
   -4.9966    0.7734   -9.9525 C   0  0  0  0  0  0  0  0  0  0  0  0
   -5.3965   -0.3302  -10.6948 C   0  0  0  0  0  0  0  0  0  0  0  0
   -4.8205   -1.5684  -10.4403 C   0  0  0  0  0  0  0  0  0  0  0  0
   -3.8827   -1.7144   -9.4094 C   0  0  0  0  0  0  0  0  0  0  0  0
   -2.7393   -1.9865   -6.6844 C   0  0  0  0  0  0  0  0  0  0  0  0
   -2.8663   -3.0935   -7.1876 O   0  0  0  0  0  0  0  0  0  0  0  0
   -2.6994   -1.8864   -5.3136 N   0  0  0  0  0  0  0  0  0  0  0  0
   -2.0195   -0.9244   -4.8135 C   0  0  0  0  0  0  0  0  0  0  0  0
   -2.0561   -0.6365   -3.5027 O   0  0  0  0  0  0  0  0  0  0  0  0
   -2.9425   -1.3233   -2.5878 C   0  0  0  0  0  0  0  0  0  0  0  0
   -3.6410   -0.2762   -1.7061 C   0  0  0  0  0  0  0  0  0  0  0  0
   -4.8881    0.1119   -2.3142 O   0  0  0  0  0  0  0  0  0  0  0  0
   -4.7958    1.0916   -3.2416 C   0  0  0  0  0  0  0  0  0  0  0  0
   -3.8540    1.8364   -3.4485 O   0  0  0  0  0  0  0  0  0  0  0  0
   -5.8763    0.8605   -4.2116 C   0  0  0  0  0  0  0  0  0  0  0  0
   -5.4650    0.4058   -5.4602 C   0  0  0  0  0  0  0  0  0  0  0  0
   -6.3972    0.0947   -6.4346 C   0  0  0  0  0  0  0  0  0  0  0  0
   -7.7600    0.2671   -6.1904 C   0  0  0  0  0  0  0  0  0  0  0  0
   -8.6896    0.0680   -7.3291 C   0  0  0  0  0  0  0  0  0  0  0  0
   -9.2895    1.2680   -8.0004 C   0  0  0  0  0  0  0  0  0  0  0  0
  -10.1766    1.3258   -8.9599 N   0  0  0  0  0  0  0  0  0  0  0  0
  -10.3995    2.6765   -9.1839 C   0  0  0  0  0  0  0  0  0  0  0  0
  -11.2583    3.2510  -10.0578 C   0  0  0  0  0  0  0  0  0  0  0  0
  -11.3987    4.7402   -9.9992 C   0  0  0  0  0  0  0  0  0  0  0  0
  -10.4365    5.6007  -10.5438 C   0  0  0  0  0  0  0  0  0  0  0  0
   -9.3281    5.1014  -11.1107 F   0  0  0  0  0  0  0  0  0  0  0  0
  -10.5930    6.9827  -10.4683 C   0  0  0  0  0  0  0  0  0  0  0  0
   -9.6431    7.7908  -10.9590 F   0  0  0  0  0  0  0  0  0  0  0  0
  -11.7219    7.5258   -9.8709 C   0  0  0  0  0  0  0  0  0  0  0  0
  -11.8704    8.8558   -9.8000 F   0  0  0  0  0  0  0  0  0  0  0  0
  -12.6914    6.6907   -9.3374 C   0  0  0  0  0  0  0  0  0  0  0  0
  -13.7840    7.2123   -8.7628 F   0  0  0  0  0  0  0  0  0  0  0  0
  -12.5280    5.3104   -9.3920 C   0  0  0  0  0  0  0  0  0  0  0  0
  -13.4731    4.5260   -8.8523 F   0  0  0  0  0  0  0  0  0  0  0  0
  -12.0832    2.5215  -10.9821 C   0  0  0  0  0  0  0  0  0  0  0  0
  -13.0355    3.0058  -11.8612 C   0  0  0  0  0  0  0  0  0  0  0  0
  -13.5844    1.9196  -12.5522 C   0  0  0  0  0  0  0  0  0  0  0  0
  -12.9482    0.7640  -12.1283 C   0  0  0  0  0  0  0  0  0  0  0  0
  -12.0354    1.1470  -11.1599 N   0  0  0  0  0  0  0  0  0  0  0  0
  -13.1565   -0.5907  -12.5689 C   0  0  0  0  0  0  0  0  0  0  0  0
  -14.2163   -0.8313  -13.6009 C   0  0  0  0  0  0  0  0  0  0  0  0
  -15.4493   -1.4032  -13.2556 C   0  0  0  0  0  0  0  0  0  0  0  0
  -15.6781   -1.8039  -11.9960 F   0  0  0  0  0  0  0  0  0  0  0  0
  -16.4421   -1.5911  -14.2129 C   0  0  0  0  0  0  0  0  0  0  0  0
  -17.6009   -2.1700  -13.8690 F   0  0  0  0  0  0  0  0  0  0  0  0
  -16.2305   -1.1889  -15.5234 C   0  0  0  0  0  0  0  0  0  0  0  0
  -17.1903   -1.3640  -16.4421 F   0  0  0  0  0  0  0  0  0  0  0  0
  -15.0220   -0.6108  -15.8831 C   0  0  0  0  0  0  0  0  0  0  0  0
  -14.8203   -0.2132  -17.1470 F   0  0  0  0  0  0  0  0  0  0  0  0
  -14.0186   -0.4415  -14.9333 C   0  0  0  0  0  0  0  0  0  0  0  0
  -12.8578    0.1151  -15.3098 F   0  0  0  0  0  0  0  0  0  0  0  0
  -12.4667   -1.6695  -12.1246 C   0  0  0  0  0  0  0  0  0  0  0  0
  -11.4625   -1.7297  -11.1683 N   0  0  0  0  0  0  0  0  0  0  0  0
  -11.1495   -2.9973  -11.0530 C   0  0  0  0  0  0  0  0  0  0  0  0
  -10.1391   -3.6478  -10.1462 C   0  0  0  0  0  0  0  0  0  0  0  0
   -9.8868   -5.1114  -10.2150 C   0  0  0  0  0  0  0  0  0  0  0  0
   -9.2706   -5.6892  -11.3331 C   0  0  0  0  0  0  0  0  0  0  0  0
   -8.9134   -4.9208  -12.3726 F   0  0  0  0  0  0  0  0  0  0  0  0
   -9.0558   -7.0649  -11.4053 C   0  0  0  0  0  0  0  0  0  0  0  0
   -8.5039   -7.5978  -12.5040 F   0  0  0  0  0  0  0  0  0  0  0  0
   -9.4280   -7.8852  -10.3505 C   0  0  0  0  0  0  0  0  0  0  0  0
   -9.2169   -9.2066  -10.4187 F   0  0  0  0  0  0  0  0  0  0  0  0
  -10.0308   -7.3351   -9.2302 C   0  0  0  0  0  0  0  0  0  0  0  0
  -10.3859   -8.1213   -8.2050 F   0  0  0  0  0  0  0  0  0  0  0  0
  -10.2731   -5.9650   -9.1702 C   0  0  0  0  0  0  0  0  0  0  0  0
  -10.8800   -5.4649   -8.0837 F   0  0  0  0  0  0  0  0  0  0  0  0
   -9.5048   -2.8951   -9.2262 C   0  0  0  0  0  0  0  0  0  0  0  0
   -8.5471   -3.3863   -8.2391 C   0  0  0  0  0  0  0  0  0  0  0  0
   -8.2062   -2.3790   -7.4188 C   0  0  0  0  0  0  0  0  0  0  0  0
   -8.8618   -1.1525   -7.8723 C   0  0  0  0  0  0  0  0  0  0  0  0
   -9.6077   -1.5531   -8.9533 N   0  0  0  0  0  0  0  0  0  0  0  0
  -11.9196   -3.8873  -11.9344 C   0  0  0  0  0  0  0  0  0  0  0  0
  -12.6876   -3.0244  -12.5856 C   0  0  0  0  0  0  0  0  0  0  0  0
   -9.5393    3.4074   -8.2787 C   0  0  0  0  0  0  0  0  0  0  0  0
   -8.8107    2.5818   -7.5419 C   0  0  0  0  0  0  0  0  0  0  0  0
   -8.1760    0.7292   -4.9288 C   0  0  0  0  0  0  0  0  0  0  0  0
   -7.2322    1.0218   -3.9305 C   0  0  0  0  0  0  0  0  0  0  0  0
    2.1800    0.8933   -4.5805 C   0  0  0  0  0  0  0  0  0  0  0  0
    3.1961    0.8074   -3.6244 C   0  0  0  0  0  0  0  0  0  0  0  0
    2.9143    0.4641   -2.2985 C   0  0  0  0  0  0  0  0  0  0  0  0
    4.0340    0.4341   -1.5108 O   0  0  0  0  0  0  0  0  0  0  0  0
    3.9260    0.1823   -0.1196 C   0  0  0  0  0  0  0  0  0  0  0  0
    3.1849    1.1795    0.7694 C   0  0  0  0  0  0  0  0  0  0  0  0
    2.7553    0.9513    1.8922 O   0  0  0  0  0  0  0  0  0  0  0  0
    3.0468    2.4098    0.2357 O   0  5  0  0  0  0  0  0  0  0  0  0
   -0.0141   -0.5412    0.8372 H   0  0  0  0  0  0  0  0  0  0  0  0
   -0.6188   -0.7855   -0.7838 H   0  0  0  0  0  0  0  0  0  0  0  0
   -0.3618    0.8347   -0.1821 H   0  0  0  0  0  0  0  0  0  0  0  0
   -0.4172    0.3450   -2.5855 H   0  0  0  0  0  0  0  0  0  0  0  0
    0.0581    1.4909   -6.0185 H   0  0  0  0  0  0  0  0  0  0  0  0
   -3.7299    1.4655   -8.4173 H   0  0  0  0  0  0  0  0  0  0  0  0
   -5.4049    1.7008  -10.1480 H   0  0  0  0  0  0  0  0  0  0  0  0
   -6.1151   -0.2313  -11.4289 H   0  0  0  0  0  0  0  0  0  0  0  0
   -5.0846   -2.3850  -11.0134 H   0  0  0  0  0  0  0  0  0  0  0  0
   -3.4709   -2.6438   -9.2313 H   0  0  0  0  0  0  0  0  0  0  0  0
   -2.3783   -1.9936   -1.9736 H   0  0  0  0  0  0  0  0  0  0  0  0
   -3.6701   -1.8854   -3.1352 H   0  0  0  0  0  0  0  0  0  0  0  0
   -3.0109    0.5828   -1.6061 H   0  0  0  0  0  0  0  0  0  0  0  0
   -3.8314   -0.6947   -0.7399 H   0  0  0  0  0  0  0  0  0  0  0  0
   -4.4583    0.2998   -5.6612 H   0  0  0  0  0  0  0  0  0  0  0  0
   -6.0821   -0.2673   -7.3482 H   0  0  0  0  0  0  0  0  0  0  0  0
  -13.2960    3.9966  -11.9858 H   0  0  0  0  0  0  0  0  0  0  0  0
  -14.3357    1.9707  -13.2579 H   0  0  0  0  0  0  0  0  0  0  0  0
  -11.4406    0.5342  -10.6701 H   0  0  0  0  0  0  0  0  0  0  0  0
   -8.1896   -4.3527   -8.1812 H   0  0  0  0  0  0  0  0  0  0  0  0
   -7.5823   -2.4576   -6.6005 H   0  0  0  0  0  0  0  0  0  0  0  0
  -10.1636   -0.9367   -9.4826 H   0  0  0  0  0  0  0  0  0  0  0  0
  -11.8743   -4.9145  -12.0230 H   0  0  0  0  0  0  0  0  0  0  0  0
  -13.3572   -3.2851  -13.3263 H   0  0  0  0  0  0  0  0  0  0  0  0
   -9.4986    4.4366   -8.2153 H   0  0  0  0  0  0  0  0  0  0  0  0
   -8.0947    2.8024   -6.8321 H   0  0  0  0  0  0  0  0  0  0  0  0
   -9.1819    0.8542   -4.7352 H   0  0  0  0  0  0  0  0  0  0  0  0
   -7.5383    1.3516   -3.0018 H   0  0  0  0  0  0  0  0  0  0  0  0
    2.4198    1.1256   -5.5570 H   0  0  0  0  0  0  0  0  0  0  0  0
    4.1711    1.0007   -3.9019 H   0  0  0  0  0  0  0  0  0  0  0  0
    4.9230    0.1066    0.2614 H   0  0  0  0  0  0  0  0  0  0  0  0
    3.3200   -0.6981   -0.0696 H   0  0  0  0  0  0  0  0  0  0  0  0
  1  2  1  0  0  0  0
  1 98  1  0  0  0  0
  1 99  1  0  0  0  0
  1100  1  0  0  0  0
  2  3  1  0  0  0  0
  3  4  1  0  0  0  0
  3 92  2  0  0  0  0
  4  5  2  0  0  0  0
  4101  1  0  0  0  0
  5  6  1  0  0  0  0
  5 90  1  0  0  0  0
  6  7  2  0  0  0  0
  6102  1  0  0  0  0
  7  8  1  0  0  0  0
  7 20  1  0  0  0  0
  8  9  2  0  0  0  0
  8 10  1  0  0  0  0
 10 11  1  0  0  0  0
 10 17  1  0  0  0  0
 11 12  1  0  0  0  0
 11 16  2  0  0  0  0
 12 13  2  0  0  0  0
 12103  1  0  0  0  0
 13 14  1  0  0  0  0
 13104  1  0  0  0  0
 14 15  2  0  0  0  0
 14105  1  0  0  0  0
 15 16  1  0  0  0  0
 15106  1  0  0  0  0
 16107  1  0  0  0  0
 17 18  2  0  0  0  0
 17 19  1  0  0  0  0
 19 20  2  0  0  0  0
 20 21  1  0  0  0  0
 21 22  1  0  0  0  0
 22 23  1  0  0  0  0
 22108  1  0  0  0  0
 22109  1  0  0  0  0
 23 24  1  0  0  0  0
 23110  1  0  0  0  0
 23111  1  0  0  0  0
 24 25  1  0  0  0  0
 25 26  2  0  0  0  0
 25 27  1  0  0  0  0
 27 28  1  0  0  0  0
 27 89  2  0  0  0  0
 28 29  2  0  0  0  0
 28112  1  0  0  0  0
 29 30  1  0  0  0  0
 29113  1  0  0  0  0
 30 31  1  0  0  0  0
 30 88  2  0  0  0  0
 31 32  1  0  0  0  0
 31 82  2  0  0  0  0
 32 33  2  0  0  0  0
 32 87  1  0  0  0  0
 33 34  1  0  0  0  0
 34 35  2  0  0  0  0
 34 86  1  0  0  0  0
 35 36  1  0  0  0  0
 35 47  1  0  0  0  0
 36 37  1  0  0  0  0
 36 45  2  0  0  0  0
 37 38  1  0  0  0  0
 37 39  2  0  0  0  0
 39 40  1  0  0  0  0
 39 41  1  0  0  0  0
 41 42  1  0  0  0  0
 41 43  2  0  0  0  0
 43 44  1  0  0  0  0
 43 45  1  0  0  0  0
 45 46  1  0  0  0  0
 47 48  2  0  0  0  0
 47 51  1  0  0  0  0
 48 49  1  0  0  0  0
 48114  1  0  0  0  0
 49 50  2  0  0  0  0
 49115  1  0  0  0  0
 50 51  1  0  0  0  0
 50 52  1  0  0  0  0
 51116  1  0  0  0  0
 52 53  1  0  0  0  0
 52 64  2  0  0  0  0
 53 54  1  0  0  0  0
 53 62  2  0  0  0  0
 54 55  1  0  0  0  0
 54 56  2  0  0  0  0
 56 57  1  0  0  0  0
 56 58  1  0  0  0  0
 58 59  1  0  0  0  0
 58 60  2  0  0  0  0
 60 61  1  0  0  0  0
 60 62  1  0  0  0  0
 62 63  1  0  0  0  0
 64 65  1  0  0  0  0
 64 85  1  0  0  0  0
 65 66  2  0  0  0  0
 66 67  1  0  0  0  0
 66 84  1  0  0  0  0
 67 68  1  0  0  0  0
 67 79  2  0  0  0  0
 68 69  1  0  0  0  0
 68 77  2  0  0  0  0
 69 70  1  0  0  0  0
 69 71  2  0  0  0  0
 71 72  1  0  0  0  0
 71 73  1  0  0  0  0
 73 74  1  0  0  0  0
 73 75  2  0  0  0  0
 75 76  1  0  0  0  0
 75 77  1  0  0  0  0
 77 78  1  0  0  0  0
 79 80  1  0  0  0  0
 79 83  1  0  0  0  0
 80 81  2  0  0  0  0
 80117  1  0  0  0  0
 81 82  1  0  0  0  0
 81118  1  0  0  0  0
 82 83  1  0  0  0  0
 83119  1  0  0  0  0
 84 85  2  0  0  0  0
 84120  1  0  0  0  0
 85121  1  0  0  0  0
 86 87  2  0  0  0  0
 86122  1  0  0  0  0
 87123  1  0  0  0  0
 88 89  1  0  0  0  0
 88124  1  0  0  0  0
 89125  1  0  0  0  0
 90 91  2  0  0  0  0
 90126  1  0  0  0  0
 91 92  1  0  0  0  0
 91127  1  0  0  0  0
 92 93  1  0  0  0  0
 93 94  1  0  0  0  0
 94 95  1  0  0  0  0
 94128  1  0  0  0  0
 94129  1  0  0  0  0
 95 96  2  0  0  0  0
 95 97  1  0  0  0  0
M  CHG  1  97  -1
M  END
$$$$
