0_3_3900
 OpenBabel04152301353D

116126  0  0  0  0  0  0  0  0999 V2000
    1.0586   -0.0821    0.0964 O   0  0  0  0  0  0  0  0  0  0  0  0
    2.1635    0.1038    0.5988 C   0  0  0  0  0  0  0  0  0  0  0  0
    2.9131   -0.9176    1.0735 O   0  0  0  0  0  0  0  0  0  0  0  0
    4.3258   -1.0815    0.8239 C   0  0  0  0  0  0  0  0  0  0  0  0
    4.6258   -1.4780   -0.6269 C   0  0  0  0  0  0  0  0  0  0  0  0
    4.2286   -0.4485   -1.5495 O   0  0  0  0  0  0  0  0  0  0  0  0
    3.0514   -0.6648   -2.1926 C   0  0  0  0  0  0  0  0  0  0  0  0
    2.3795   -1.6924   -2.1270 O   0  0  0  0  0  0  0  0  0  0  0  0
    2.6605    0.5066   -2.9234 C   0  0  0  0  0  0  0  0  0  0  0  0
    3.4054    1.3293   -3.7499 C   0  0  0  0  0  0  0  0  0  0  0  0
    2.4777    2.0764   -4.5258 C   0  0  0  0  0  0  0  0  0  0  0  0
    2.8828    2.9045   -5.9909 S   0  0  0  0  0  0  0  0  0  0  0  0
    1.6878    3.6336   -6.3614 O   0  0  0  0  0  0  0  0  0  0  0  0
    4.1227    3.5845   -5.6949 O   0  0  0  0  0  0  0  0  0  0  0  0
    3.1960    1.7792   -7.2380 N   0  0  0  0  0  0  0  0  0  0  0  0
    3.9392    0.6061   -6.8967 C   0  0  0  0  0  0  0  0  0  0  0  0
    3.2422   -0.4975   -6.3989 C   0  0  0  0  0  0  0  0  0  0  0  0
    3.9349   -1.6222   -5.9540 C   0  0  0  0  0  0  0  0  0  0  0  0
    5.3230   -1.6540   -6.0377 C   0  0  0  0  0  0  0  0  0  0  0  0
    5.9582   -2.7494   -5.6034 F   0  0  0  0  0  0  0  0  0  0  0  0
    6.0401   -0.5752   -6.5538 C   0  0  0  0  0  0  0  0  0  0  0  0
    7.5338   -0.6437   -6.6893 C   0  0  0  0  0  0  0  0  0  0  0  0
    7.9236   -0.6514   -7.9951 F   0  0  0  0  0  0  0  0  0  0  0  0
    8.1487    0.4360   -6.1292 F   0  0  0  0  0  0  0  0  0  0  0  0
    8.1182   -1.7320   -6.1212 F   0  0  0  0  0  0  0  0  0  0  0  0
    5.3339    0.5735   -6.9715 C   0  0  0  0  0  0  0  0  0  0  0  0
    1.2311    1.9036   -3.9588 C   0  0  0  0  0  0  0  0  0  0  0  0
    1.3585    0.9615   -2.9689 N   0  0  0  0  0  0  0  0  0  0  0  0
    2.5732    1.4981    0.8797 C   0  0  0  0  0  0  0  0  0  0  0  0
    3.8171    2.0322    0.5368 C   0  0  0  0  0  0  0  0  0  0  0  0
    4.0865    3.3758    0.7660 C   0  0  0  0  0  0  0  0  0  0  0  0
    3.0873    4.2109    1.2747 C   0  0  0  0  0  0  0  0  0  0  0  0
    3.3757    5.6583    1.3665 C   0  0  0  0  0  0  0  0  0  0  0  0
    3.3084    6.3804    0.0243 C   0  0  0  0  0  0  0  0  0  0  0  0
    3.8874    7.4800   -0.3543 N   0  0  0  0  0  0  0  0  0  0  0  0
    3.4346    7.7590   -1.6561 C   0  0  0  0  0  0  0  0  0  0  0  0
    3.5972    8.9642   -2.2703 C   0  0  0  0  0  0  0  0  0  0  0  0
    2.9883    9.4960   -3.5330 C   0  0  0  0  0  0  0  0  0  0  0  0
    1.6384    9.3160   -3.8643 C   0  0  0  0  0  0  0  0  0  0  0  0
    0.8748    8.4463   -3.1886 F   0  0  0  0  0  0  0  0  0  0  0  0
    1.0159   10.1084   -4.8339 C   0  0  0  0  0  0  0  0  0  0  0  0
   -0.2883    9.9384   -5.0928 F   0  0  0  0  0  0  0  0  0  0  0  0
    1.7151   11.1178   -5.4761 C   0  0  0  0  0  0  0  0  0  0  0  0
    1.0876   11.9379   -6.3304 F   0  0  0  0  0  0  0  0  0  0  0  0
    3.0566   11.2976   -5.2001 C   0  0  0  0  0  0  0  0  0  0  0  0
    3.7349   12.2944   -5.7867 F   0  0  0  0  0  0  0  0  0  0  0  0
    3.6903   10.4821   -4.2644 C   0  0  0  0  0  0  0  0  0  0  0  0
    4.9917   10.7122   -4.0284 F   0  0  0  0  0  0  0  0  0  0  0  0
    4.3070    9.8831   -1.4468 C   0  0  0  0  0  0  0  0  0  0  0  0
    5.6334   10.0746   -1.1681 C   0  0  0  0  0  0  0  0  0  0  0  0
    5.6553   10.7109    0.0940 C   0  0  0  0  0  0  0  0  0  0  0  0
    4.3409   10.9011    0.5289 C   0  0  0  0  0  0  0  0  0  0  0  0
    3.5668   10.6468   -0.5798 N   0  0  0  0  0  0  0  0  0  0  0  0
    3.6635   11.0681    1.7975 C   0  0  0  0  0  0  0  0  0  0  0  0
    2.1892   10.8483    2.0460 C   0  0  0  0  0  0  0  0  0  0  0  0
    1.5291    9.6501    1.7302 C   0  0  0  0  0  0  0  0  0  0  0  0
    2.1724    8.6752    1.0928 F   0  0  0  0  0  0  0  0  0  0  0  0
    0.1958    9.4209    2.0627 C   0  0  0  0  0  0  0  0  0  0  0  0
   -0.3923    8.2656    1.7168 F   0  0  0  0  0  0  0  0  0  0  0  0
   -0.5164   10.3862    2.7456 C   0  0  0  0  0  0  0  0  0  0  0  0
   -1.7989   10.1710    3.0702 F   0  0  0  0  0  0  0  0  0  0  0  0
    0.1046   11.5791    3.0833 C   0  0  0  0  0  0  0  0  0  0  0  0
   -0.5838   12.5184    3.7465 F   0  0  0  0  0  0  0  0  0  0  0  0
    1.4385   11.8096    2.7351 C   0  0  0  0  0  0  0  0  0  0  0  0
    2.0000   12.9792    3.0761 F   0  0  0  0  0  0  0  0  0  0  0  0
    4.4135   10.9855    2.9250 C   0  0  0  0  0  0  0  0  0  0  0  0
    3.9604   10.2471    3.9976 N   0  0  0  0  0  0  0  0  0  0  0  0
    5.0158    9.5732    4.3527 C   0  0  0  0  0  0  0  0  0  0  0  0
    5.0061    8.3727    5.2159 C   0  0  0  0  0  0  0  0  0  0  0  0
    5.6388    8.4903    6.5922 C   0  0  0  0  0  0  0  0  0  0  0  0
    6.3433    9.6717    6.9582 C   0  0  0  0  0  0  0  0  0  0  0  0
    6.2839   10.7838    6.2139 F   0  0  0  0  0  0  0  0  0  0  0  0
    7.1436    9.7734    8.0999 C   0  0  0  0  0  0  0  0  0  0  0  0
    7.8498   10.8921    8.3187 F   0  0  0  0  0  0  0  0  0  0  0  0
    7.2217    8.7239    8.9822 C   0  0  0  0  0  0  0  0  0  0  0  0
    8.0066    8.8019   10.0646 F   0  0  0  0  0  0  0  0  0  0  0  0
    6.4596    7.5999    8.7393 C   0  0  0  0  0  0  0  0  0  0  0  0
    6.4752    6.5906    9.6217 F   0  0  0  0  0  0  0  0  0  0  0  0
    5.6773    7.4908    7.5765 C   0  0  0  0  0  0  0  0  0  0  0  0
    4.9413    6.3827    7.4839 F   0  0  0  0  0  0  0  0  0  0  0  0
    4.4719    7.3645    4.4595 C   0  0  0  0  0  0  0  0  0  0  0  0
    4.1888    6.0006    4.8599 C   0  0  0  0  0  0  0  0  0  0  0  0
    3.7483    5.2931    3.8054 C   0  0  0  0  0  0  0  0  0  0  0  0
    3.7147    6.1311    2.5976 C   0  0  0  0  0  0  0  0  0  0  0  0
    4.1046    7.3610    3.0911 N   0  0  0  0  0  0  0  0  0  0  0  0
    6.2898   10.0208    3.7751 C   0  0  0  0  0  0  0  0  0  0  0  0
    5.8509   11.0311    3.0310 C   0  0  0  0  0  0  0  0  0  0  0  0
    2.6894    6.6142   -2.0905 C   0  0  0  0  0  0  0  0  0  0  0  0
    2.5346    5.7561   -1.0809 C   0  0  0  0  0  0  0  0  0  0  0  0
    1.8249    3.6975    1.5875 C   0  0  0  0  0  0  0  0  0  0  0  0
    1.5742    2.3425    1.3939 C   0  0  0  0  0  0  0  0  0  0  0  0
    4.7022   -1.8446    1.4726 H   0  0  0  0  0  0  0  0  0  0  0  0
    4.7989   -0.1394    1.0070 H   0  0  0  0  0  0  0  0  0  0  0  0
    4.0931   -2.3765   -0.8587 H   0  0  0  0  0  0  0  0  0  0  0  0
    5.6814   -1.6245   -0.7226 H   0  0  0  0  0  0  0  0  0  0  0  0
    4.4347    1.3889   -3.7944 H   0  0  0  0  0  0  0  0  0  0  0  0
    2.8769    1.9326   -8.1566 H   0  0  0  0  0  0  0  0  0  0  0  0
    2.2111   -0.4800   -6.3604 H   0  0  0  0  0  0  0  0  0  0  0  0
    3.4204   -2.4275   -5.5644 H   0  0  0  0  0  0  0  0  0  0  0  0
    5.8492    1.3913   -7.3330 H   0  0  0  0  0  0  0  0  0  0  0  0
    0.3635    2.3925   -4.2293 H   0  0  0  0  0  0  0  0  0  0  0  0
    0.6308    0.6563   -2.3802 H   0  0  0  0  0  0  0  0  0  0  0  0
    4.5377    1.4277    0.1123 H   0  0  0  0  0  0  0  0  0  0  0  0
    5.0233    3.7570    0.5609 H   0  0  0  0  0  0  0  0  0  0  0  0
    6.4421    9.8115   -1.7527 H   0  0  0  0  0  0  0  0  0  0  0  0
    6.5042   10.9897    0.6104 H   0  0  0  0  0  0  0  0  0  0  0  0
    2.6442   10.9580   -0.7254 H   0  0  0  0  0  0  0  0  0  0  0  0
    4.3080    5.6274    5.8147 H   0  0  0  0  0  0  0  0  0  0  0  0
    3.4719    4.2994    3.8388 H   0  0  0  0  0  0  0  0  0  0  0  0
    4.1256    8.1729    2.5346 H   0  0  0  0  0  0  0  0  0  0  0  0
    7.2464    9.6572    3.9081 H   0  0  0  0  0  0  0  0  0  0  0  0
    6.4525   11.7456    2.5921 H   0  0  0  0  0  0  0  0  0  0  0  0
    2.3253    6.4741   -3.0459 H   0  0  0  0  0  0  0  0  0  0  0  0
    2.0045    4.8707   -1.0698 H   0  0  0  0  0  0  0  0  0  0  0  0
    1.0871    4.3168    1.9579 H   0  0  0  0  0  0  0  0  0  0  0  0
    0.6474    1.9545    1.6297 H   0  0  0  0  0  0  0  0  0  0  0  0
  1  2  2  0  0  0  0
  2  3  1  0  0  0  0
  2 29  1  0  0  0  0
  3  4  1  0  0  0  0
  4  5  1  0  0  0  0
  4 92  1  0  0  0  0
  4 93  1  0  0  0  0
  5  6  1  0  0  0  0
  5 94  1  0  0  0  0
  5 95  1  0  0  0  0
  6  7  1  0  0  0  0
  7  8  2  0  0  0  0
  7  9  1  0  0  0  0
  9 10  2  0  0  0  0
  9 28  1  0  0  0  0
 10 11  1  0  0  0  0
 10 96  1  0  0  0  0
 11 12  1  0  0  0  0
 11 27  2  0  0  0  0
 12 13  2  0  0  0  0
 12 14  2  0  0  0  0
 12 15  1  0  0  0  0
 15 16  1  0  0  0  0
 15 97  1  0  0  0  0
 16 17  1  0  0  0  0
 16 26  2  0  0  0  0
 17 18  2  0  0  0  0
 17 98  1  0  0  0  0
 18 19  1  0  0  0  0
 18 99  1  0  0  0  0
 19 20  1  0  0  0  0
 19 21  2  0  0  0  0
 21 22  1  0  0  0  0
 21 26  1  0  0  0  0
 22 23  1  0  0  0  0
 22 24  1  0  0  0  0
 22 25  1  0  0  0  0
 26100  1  0  0  0  0
 27 28  1  0  0  0  0
 27101  1  0  0  0  0
 28102  1  0  0  0  0
 29 30  1  0  0  0  0
 29 91  2  0  0  0  0
 30 31  2  0  0  0  0
 30103  1  0  0  0  0
 31 32  1  0  0  0  0
 31104  1  0  0  0  0
 32 33  1  0  0  0  0
 32 90  2  0  0  0  0
 33 34  1  0  0  0  0
 33 84  2  0  0  0  0
 34 35  2  0  0  0  0
 34 89  1  0  0  0  0
 35 36  1  0  0  0  0
 36 37  2  0  0  0  0
 36 88  1  0  0  0  0
 37 38  1  0  0  0  0
 37 49  1  0  0  0  0
 38 39  1  0  0  0  0
 38 47  2  0  0  0  0
 39 40  1  0  0  0  0
 39 41  2  0  0  0  0
 41 42  1  0  0  0  0
 41 43  1  0  0  0  0
 43 44  1  0  0  0  0
 43 45  2  0  0  0  0
 45 46  1  0  0  0  0
 45 47  1  0  0  0  0
 47 48  1  0  0  0  0
 49 50  2  0  0  0  0
 49 53  1  0  0  0  0
 50 51  1  0  0  0  0
 50105  1  0  0  0  0
 51 52  2  0  0  0  0
 51106  1  0  0  0  0
 52 53  1  0  0  0  0
 52 54  1  0  0  0  0
 53107  1  0  0  0  0
 54 55  1  0  0  0  0
 54 66  2  0  0  0  0
 55 56  1  0  0  0  0
 55 64  2  0  0  0  0
 56 57  1  0  0  0  0
 56 58  2  0  0  0  0
 58 59  1  0  0  0  0
 58 60  1  0  0  0  0
 60 61  1  0  0  0  0
 60 62  2  0  0  0  0
 62 63  1  0  0  0  0
 62 64  1  0  0  0  0
 64 65  1  0  0  0  0
 66 67  1  0  0  0  0
 66 87  1  0  0  0  0
 67 68  2  0  0  0  0
 68 69  1  0  0  0  0
 68 86  1  0  0  0  0
 69 70  1  0  0  0  0
 69 81  2  0  0  0  0
 70 71  1  0  0  0  0
 70 79  2  0  0  0  0
 71 72  1  0  0  0  0
 71 73  2  0  0  0  0
 73 74  1  0  0  0  0
 73 75  1  0  0  0  0
 75 76  1  0  0  0  0
 75 77  2  0  0  0  0
 77 78  1  0  0  0  0
 77 79  1  0  0  0  0
 79 80  1  0  0  0  0
 81 82  1  0  0  0  0
 81 85  1  0  0  0  0
 82 83  2  0  0  0  0
 82108  1  0  0  0  0
 83 84  1  0  0  0  0
 83109  1  0  0  0  0
 84 85  1  0  0  0  0
 85110  1  0  0  0  0
 86 87  2  0  0  0  0
 86111  1  0  0  0  0
 87112  1  0  0  0  0
 88 89  2  0  0  0  0
 88113  1  0  0  0  0
 89114  1  0  0  0  0
 90 91  1  0  0  0  0
 90115  1  0  0  0  0
 91116  1  0  0  0  0
M  END
$$$$
