0_3_1456
 OpenBabel04152301373D

128138  0  0  1  0  0  0  0  0999 V2000
   -3.2187   -0.2583    2.8472 C   0  0  0  0  0  0  0  0  0  0  0  0
   -1.8185   -0.1481    2.5033 N   0  3  0  0  0  0  0  0  0  0  0  0
   -1.3500   -0.4113    1.1183 C   0  0  2  0  0  0  0  0  0  0  0  0
    0.2055   -0.6023    1.1935 C   0  0  0  0  0  0  0  0  0  0  0  0
    0.7599   -1.2671    2.0652 O   0  0  0  0  0  0  0  0  0  0  0  0
    0.8759    0.0014    0.1738 O   0  0  0  0  0  0  0  0  0  0  0  0
    2.3025   -0.2083    0.1665 C   0  0  0  0  0  0  0  0  0  0  0  0
    3.0379    0.9597    0.8212 C   0  0  0  0  0  0  0  0  0  0  0  0
    2.6448    1.0956    2.1994 O   0  0  0  0  0  0  0  0  0  0  0  0
    2.0091    2.2445    2.5175 C   0  0  0  0  0  0  0  0  0  0  0  0
    1.7835    3.1972    1.7900 O   0  0  0  0  0  0  0  0  0  0  0  0
    1.5629    2.2130    3.9209 C   0  0  0  0  0  0  0  0  0  0  0  0
    0.6584    1.2409    4.3381 C   0  0  0  0  0  0  0  0  0  0  0  0
    0.0022    1.3705    5.5591 C   0  0  0  0  0  0  0  0  0  0  0  0
    0.3401    2.4036    6.4429 C   0  0  0  0  0  0  0  0  0  0  0  0
   -0.3771    2.5578    7.7401 C   0  0  0  0  0  0  0  0  0  0  0  0
   -1.0961    3.8429    8.0577 C   0  0  0  0  0  0  0  0  0  0  0  0
   -1.5933    4.2565    9.1968 N   0  0  0  0  0  0  0  0  0  0  0  0
   -2.0628    5.5422    8.9618 C   0  0  0  0  0  0  0  0  0  0  0  0
   -2.6392    6.4017    9.8356 C   0  0  0  0  0  0  0  0  0  0  0  0
   -2.9288    7.7902    9.3517 C   0  0  0  0  0  0  0  0  0  0  0  0
   -4.0193    8.0743    8.5194 C   0  0  0  0  0  0  0  0  0  0  0  0
   -4.8141    7.0842    8.0870 F   0  0  0  0  0  0  0  0  0  0  0  0
   -4.2773    9.3780    8.1014 C   0  0  0  0  0  0  0  0  0  0  0  0
   -5.3053    9.6246    7.2775 F   0  0  0  0  0  0  0  0  0  0  0  0
   -3.4667   10.4209    8.5265 C   0  0  0  0  0  0  0  0  0  0  0  0
   -3.7204   11.6748    8.1270 F   0  0  0  0  0  0  0  0  0  0  0  0
   -2.3893   10.1628    9.3600 C   0  0  0  0  0  0  0  0  0  0  0  0
   -1.6093   11.1695    9.7779 F   0  0  0  0  0  0  0  0  0  0  0  0
   -2.1164    8.8588    9.7625 C   0  0  0  0  0  0  0  0  0  0  0  0
   -1.0619    8.6375   10.5619 F   0  0  0  0  0  0  0  0  0  0  0  0
   -2.9574    6.0827   11.2024 C   0  0  0  0  0  0  0  0  0  0  0  0
   -3.5376    6.8883   12.1674 C   0  0  0  0  0  0  0  0  0  0  0  0
   -3.6688    6.1394   13.3428 C   0  0  0  0  0  0  0  0  0  0  0  0
   -3.1931    4.8613   13.1007 C   0  0  0  0  0  0  0  0  0  0  0  0
   -2.7491    4.8437   11.7886 N   0  0  0  0  0  0  0  0  0  0  0  0
   -3.1460    3.7365   13.9962 C   0  0  0  0  0  0  0  0  0  0  0  0
   -3.6488    3.9313   15.3923 C   0  0  0  0  0  0  0  0  0  0  0  0
   -2.7621    4.0937   16.4661 C   0  0  0  0  0  0  0  0  0  0  0  0
   -1.4376    4.0335   16.2624 F   0  0  0  0  0  0  0  0  0  0  0  0
   -3.2376    4.2869   17.7597 C   0  0  0  0  0  0  0  0  0  0  0  0
   -2.3748    4.4073   18.7780 F   0  0  0  0  0  0  0  0  0  0  0  0
   -4.6032    4.3414   17.9982 C   0  0  0  0  0  0  0  0  0  0  0  0
   -5.0593    4.5269   19.2446 F   0  0  0  0  0  0  0  0  0  0  0  0
   -5.4963    4.1945   16.9468 C   0  0  0  0  0  0  0  0  0  0  0  0
   -6.8154    4.2505   17.1765 F   0  0  0  0  0  0  0  0  0  0  0  0
   -5.0248    3.9845   15.6544 C   0  0  0  0  0  0  0  0  0  0  0  0
   -5.9091    3.8350   14.6571 F   0  0  0  0  0  0  0  0  0  0  0  0
   -2.6868    2.5032   13.6754 C   0  0  0  0  0  0  0  0  0  0  0  0
   -2.1580    2.0578   12.4733 N   0  0  0  0  0  0  0  0  0  0  0  0
   -1.8176    0.8085   12.6719 C   0  0  0  0  0  0  0  0  0  0  0  0
   -1.1658   -0.1564   11.7245 C   0  0  0  0  0  0  0  0  0  0  0  0
   -0.8574   -1.5466   12.1437 C   0  0  0  0  0  0  0  0  0  0  0  0
   -1.8792   -2.4922   12.2994 C   0  0  0  0  0  0  0  0  0  0  0  0
   -3.1580   -2.1324   12.1155 F   0  0  0  0  0  0  0  0  0  0  0  0
   -1.5922   -3.8034   12.6726 C   0  0  0  0  0  0  0  0  0  0  0  0
   -2.5890   -4.6822   12.8441 F   0  0  0  0  0  0  0  0  0  0  0  0
   -0.2777   -4.1979   12.8756 C   0  0  0  0  0  0  0  0  0  0  0  0
   -0.0018   -5.4620   13.2236 F   0  0  0  0  0  0  0  0  0  0  0  0
    0.7496   -3.2790   12.7241 C   0  0  0  0  0  0  0  0  0  0  0  0
    2.0213   -3.6583   12.9090 F   0  0  0  0  0  0  0  0  0  0  0  0
    0.4618   -1.9619   12.3760 C   0  0  0  0  0  0  0  0  0  0  0  0
    1.4730   -1.0911   12.2432 F   0  0  0  0  0  0  0  0  0  0  0  0
   -0.8205    0.2592   10.4914 C   0  0  0  0  0  0  0  0  0  0  0  0
   -0.1007   -0.5417    9.5076 C   0  0  0  0  0  0  0  0  0  0  0  0
    0.1854    0.2263    8.4458 C   0  0  0  0  0  0  0  0  0  0  0  0
   -0.4126    1.5484    8.6328 C   0  0  0  0  0  0  0  0  0  0  0  0
   -0.9914    1.4752    9.8768 N   0  0  0  0  0  0  0  0  0  0  0  0
   -2.1026    0.3148   14.0267 C   0  0  0  0  0  0  0  0  0  0  0  0
   -2.6513    1.3817   14.5914 C   0  0  0  0  0  0  0  0  0  0  0  0
   -1.8131    5.8359    7.5669 C   0  0  0  0  0  0  0  0  0  0  0  0
   -1.2678    4.7967    6.9502 C   0  0  0  0  0  0  0  0  0  0  0  0
    1.3366    3.3182    6.0555 C   0  0  0  0  0  0  0  0  0  0  0  0
    1.9091    3.2546    4.7800 C   0  0  0  0  0  0  0  0  0  0  0  0
   -1.8088    0.7262    0.1778 C   0  0  0  0  0  0  0  0  0  0  0  0
   -3.1565    0.2839   -0.4033 C   0  0  0  0  0  0  0  0  0  0  0  0
   -3.2671   -1.2224   -0.1623 C   0  0  0  0  0  0  0  0  0  0  0  0
   -1.8905   -1.6464    0.3537 C   0  0  2  0  0  0  0  0  0  0  0  0
   -1.8608   -2.9895    1.1005 C   0  0  0  0  0  0  0  0  0  0  0  0
   -1.9841   -4.2093    0.1776 C   0  0  0  0  0  0  0  0  0  0  0  0
   -0.8846   -4.3429   -0.7675 N   0  0  0  0  0  0  0  0  0  0  0  0
    0.2860   -4.8387   -0.3160 N   0  0  0  0  0  0  0  0  0  0  0  0
    1.1041   -4.7865   -1.3749 C   0  0  0  0  0  0  0  0  0  0  0  0
    2.5058   -5.2543   -1.2451 C   0  0  0  0  0  0  0  0  0  0  0  0
    0.4434   -4.2611   -2.5062 C   0  0  0  0  0  0  0  0  0  0  0  0
    1.1143   -3.9991   -4.0430 Cl  0  0  0  0  0  0  0  0  0  0  0  0
   -0.8491   -4.0017   -2.0994 C   0  0  0  0  0  0  0  0  0  0  0  0
   -1.9855   -3.4332   -2.8650 C   0  0  0  0  0  0  0  0  0  0  0  0
   -3.3501   -0.0312    3.8845 H   0  0  0  0  0  0  0  0  0  0  0  0
   -3.5558   -1.2554    2.6549 H   0  0  0  0  0  0  0  0  0  0  0  0
   -3.7863    0.4302    2.2566 H   0  0  0  0  0  0  0  0  0  0  0  0
   -1.3188   -0.8002    3.1078 H   0  0  0  0  0  0  0  0  0  0  0  0
   -1.6364    0.8490    2.6170 H   0  0  0  0  0  0  0  0  0  0  0  0
    2.6353   -0.3065   -0.8457 H   0  0  0  0  0  0  0  0  0  0  0  0
    2.5164   -1.0969    0.7229 H   0  0  0  0  0  0  0  0  0  0  0  0
    2.8018    1.8623    0.2973 H   0  0  0  0  0  0  0  0  0  0  0  0
    4.0906    0.7726    0.7790 H   0  0  0  0  0  0  0  0  0  0  0  0
    0.4734    0.4206    3.7398 H   0  0  0  0  0  0  0  0  0  0  0  0
   -0.7393    0.7000    5.8153 H   0  0  0  0  0  0  0  0  0  0  0  0
   -3.8241    7.8717   12.0418 H   0  0  0  0  0  0  0  0  0  0  0  0
   -4.0542    6.4812   14.2370 H   0  0  0  0  0  0  0  0  0  0  0  0
   -2.3454    4.0665   11.3390 H   0  0  0  0  0  0  0  0  0  0  0  0
    0.1481   -1.5378    9.6116 H   0  0  0  0  0  0  0  0  0  0  0  0
    0.7396   -0.0687    7.6267 H   0  0  0  0  0  0  0  0  0  0  0  0
   -1.4818    2.2232   10.2882 H   0  0  0  0  0  0  0  0  0  0  0  0
   -1.9229   -0.6172   14.4319 H   0  0  0  0  0  0  0  0  0  0  0  0
   -3.0075    1.4095   15.5596 H   0  0  0  0  0  0  0  0  0  0  0  0
   -2.0309    6.7362    7.1119 H   0  0  0  0  0  0  0  0  0  0  0  0
   -1.0265    4.6855    5.9530 H   0  0  0  0  0  0  0  0  0  0  0  0
    1.6489    4.0441    6.7193 H   0  0  0  0  0  0  0  0  0  0  0  0
    2.5836    3.9746    4.4773 H   0  0  0  0  0  0  0  0  0  0  0  0
   -1.0955    0.8690   -0.6069 H   0  0  0  0  0  0  0  0  0  0  0  0
   -1.8965    1.6544    0.7028 H   0  0  0  0  0  0  0  0  0  0  0  0
   -3.1921    0.4930   -1.4521 H   0  0  0  0  0  0  0  0  0  0  0  0
   -3.9658    0.8079    0.0607 H   0  0  0  0  0  0  0  0  0  0  0  0
   -3.5000   -1.7324   -1.0737 H   0  0  0  0  0  0  0  0  0  0  0  0
   -4.0459   -1.4610    0.5315 H   0  0  0  0  0  0  0  0  0  0  0  0
   -1.2269   -1.8963   -0.4476 H   0  0  0  0  0  0  0  0  0  0  0  0
   -2.6740   -3.0079    1.7957 H   0  0  0  0  0  0  0  0  0  0  0  0
   -0.9092   -3.0578    1.5849 H   0  0  0  0  0  0  0  0  0  0  0  0
   -2.8961   -4.1235   -0.3754 H   0  0  0  0  0  0  0  0  0  0  0  0
   -1.9654   -5.0773    0.8031 H   0  0  0  0  0  0  0  0  0  0  0  0
    2.6778   -5.5922   -0.2445 H   0  0  0  0  0  0  0  0  0  0  0  0
    3.1730   -4.4483   -1.4690 H   0  0  0  0  0  0  0  0  0  0  0  0
    2.6777   -6.0598   -1.9281 H   0  0  0  0  0  0  0  0  0  0  0  0
   -2.8460   -3.3702   -2.2321 H   0  0  0  0  0  0  0  0  0  0  0  0
   -2.2033   -4.0641   -3.7013 H   0  0  0  0  0  0  0  0  0  0  0  0
   -1.7269   -2.4552   -3.2137 H   0  0  0  0  0  0  0  0  0  0  0  0
  1  2  1  0  0  0  0
  1 89  1  0  0  0  0
  1 90  1  0  0  0  0
  1 91  1  0  0  0  0
  2 92  1  0  0  0  0
  2 93  1  0  0  0  0
  3 75  1  0  0  0  0
  3 78  1  0  0  0  0
  3  4  1  6  0  0  0
  3  2  1  0  0  0  0
  4  5  2  0  0  0  0
  4  6  1  0  0  0  0
  6  7  1  0  0  0  0
  7  8  1  0  0  0  0
  7 94  1  0  0  0  0
  7 95  1  0  0  0  0
  8  9  1  0  0  0  0
  8 96  1  0  0  0  0
  8 97  1  0  0  0  0
  9 10  1  0  0  0  0
 10 11  2  0  0  0  0
 10 12  1  0  0  0  0
 12 13  1  0  0  0  0
 12 74  2  0  0  0  0
 13 14  2  0  0  0  0
 13 98  1  0  0  0  0
 14 15  1  0  0  0  0
 14 99  1  0  0  0  0
 15 16  1  0  0  0  0
 15 73  2  0  0  0  0
 16 17  1  0  0  0  0
 16 67  2  0  0  0  0
 17 18  2  0  0  0  0
 17 72  1  0  0  0  0
 18 19  1  0  0  0  0
 19 20  2  0  0  0  0
 19 71  1  0  0  0  0
 20 21  1  0  0  0  0
 20 32  1  0  0  0  0
 21 22  1  0  0  0  0
 21 30  2  0  0  0  0
 22 23  1  0  0  0  0
 22 24  2  0  0  0  0
 24 25  1  0  0  0  0
 24 26  1  0  0  0  0
 26 27  1  0  0  0  0
 26 28  2  0  0  0  0
 28 29  1  0  0  0  0
 28 30  1  0  0  0  0
 30 31  1  0  0  0  0
 32 33  2  0  0  0  0
 32 36  1  0  0  0  0
 33 34  1  0  0  0  0
 33100  1  0  0  0  0
 34 35  2  0  0  0  0
 34101  1  0  0  0  0
 35 36  1  0  0  0  0
 35 37  1  0  0  0  0
 36102  1  0  0  0  0
 37 38  1  0  0  0  0
 37 49  2  0  0  0  0
 38 39  1  0  0  0  0
 38 47  2  0  0  0  0
 39 40  1  0  0  0  0
 39 41  2  0  0  0  0
 41 42  1  0  0  0  0
 41 43  1  0  0  0  0
 43 44  1  0  0  0  0
 43 45  2  0  0  0  0
 45 46  1  0  0  0  0
 45 47  1  0  0  0  0
 47 48  1  0  0  0  0
 49 50  1  0  0  0  0
 49 70  1  0  0  0  0
 50 51  2  0  0  0  0
 51 52  1  0  0  0  0
 51 69  1  0  0  0  0
 52 53  1  0  0  0  0
 52 64  2  0  0  0  0
 53 54  1  0  0  0  0
 53 62  2  0  0  0  0
 54 55  1  0  0  0  0
 54 56  2  0  0  0  0
 56 57  1  0  0  0  0
 56 58  1  0  0  0  0
 58 59  1  0  0  0  0
 58 60  2  0  0  0  0
 60 61  1  0  0  0  0
 60 62  1  0  0  0  0
 62 63  1  0  0  0  0
 64 65  1  0  0  0  0
 64 68  1  0  0  0  0
 65 66  2  0  0  0  0
 65103  1  0  0  0  0
 66 67  1  0  0  0  0
 66104  1  0  0  0  0
 67 68  1  0  0  0  0
 68105  1  0  0  0  0
 69 70  2  0  0  0  0
 69106  1  0  0  0  0
 70107  1  0  0  0  0
 71 72  2  0  0  0  0
 71108  1  0  0  0  0
 72109  1  0  0  0  0
 73 74  1  0  0  0  0
 73110  1  0  0  0  0
 74111  1  0  0  0  0
 75 76  1  0  0  0  0
 75112  1  0  0  0  0
 75113  1  0  0  0  0
 76 77  1  0  0  0  0
 76114  1  0  0  0  0
 76115  1  0  0  0  0
 77 78  1  0  0  0  0
 77116  1  0  0  0  0
 77117  1  0  0  0  0
 78 79  1  0  0  0  0
 78118  1  6  0  0  0
 79 80  1  0  0  0  0
 79119  1  0  0  0  0
 79120  1  0  0  0  0
 80 81  1  0  0  0  0
 80121  1  0  0  0  0
 80122  1  0  0  0  0
 81 82  1  0  0  0  0
 81 87  1  0  0  0  0
 82 83  2  0  0  0  0
 83 84  1  0  0  0  0
 83 85  1  0  0  0  0
 84123  1  0  0  0  0
 84124  1  0  0  0  0
 84125  1  0  0  0  0
 85 86  1  0  0  0  0
 85 87  2  0  0  0  0
 87 88  1  0  0  0  0
 88126  1  0  0  0  0
 88127  1  0  0  0  0
 88128  1  0  0  0  0
M  CHG  1   2   1
M  END
$$$$
