0_3_618
 OpenBabel04152301373D

117126  0  0  1  0  0  0  0  0999 V2000
    1.0031   -0.2396    0.1128 C   0  0  0  0  0  0  0  0  0  0  0  0
    0.3856    1.0340   -0.4373 C   0  0  0  0  0  0  0  0  0  0  0  0
    1.0355    1.5862   -1.6234 N   0  0  0  0  0  0  0  0  0  0  0  0
    1.3579    0.7214   -2.7665 C   0  0  0  0  0  0  0  0  0  0  0  0
    2.4851    1.2838   -3.6493 C   0  0  0  0  0  0  0  0  0  0  0  0
    3.1564    0.5682   -4.3893 O   0  0  0  0  0  0  0  0  0  0  0  0
    2.5745    2.6696   -3.6506 N   0  0  0  0  0  0  0  0  0  0  0  0
    3.6556    3.3547   -4.3725 C   0  0  0  0  0  0  0  0  0  0  0  0
    3.3180    3.7034   -5.8338 C   0  0  1  0  0  0  0  0  0  0  0  0
    2.1884    4.6641   -5.9733 N   0  3  0  0  0  0  0  0  0  0  0  0
    4.5141    4.2421   -6.6358 C   0  0  0  0  0  0  0  0  0  0  0  0
    4.4616    4.3620   -7.8586 O   0  0  0  0  0  0  0  0  0  0  0  0
    5.5763    4.6019   -5.8712 O   0  0  0  0  0  0  0  0  0  0  0  0
    6.7291    5.1007   -6.5781 C   0  0  0  0  0  0  0  0  0  0  0  0
    7.8104    4.0267   -6.7297 C   0  0  0  0  0  0  0  0  0  0  0  0
    7.3881    2.9510   -7.5875 O   0  0  0  0  0  0  0  0  0  0  0  0
    6.7562    1.9355   -6.9536 C   0  0  0  0  0  0  0  0  0  0  0  0
    6.5260    1.8380   -5.7620 O   0  0  0  0  0  0  0  0  0  0  0  0
    6.2576    0.9734   -7.9446 C   0  0  0  0  0  0  0  0  0  0  0  0
    4.8762    0.8000   -8.0691 C   0  0  0  0  0  0  0  0  0  0  0  0
    4.3669   -0.1689   -8.9278 C   0  0  0  0  0  0  0  0  0  0  0  0
    5.2449   -0.9778   -9.6556 C   0  0  0  0  0  0  0  0  0  0  0  0
    4.7301   -2.0811  -10.4942 C   0  0  0  0  0  0  0  0  0  0  0  0
    4.8700   -3.4923  -10.0123 C   0  0  0  0  0  0  0  0  0  0  0  0
    4.6865   -4.6131  -10.6601 N   0  0  0  0  0  0  0  0  0  0  0  0
    4.9961   -5.6211   -9.7581 C   0  0  0  0  0  0  0  0  0  0  0  0
    4.9705   -6.9602   -9.9580 C   0  0  0  0  0  0  0  0  0  0  0  0
    5.4364   -7.8315   -8.8299 C   0  0  0  0  0  0  0  0  0  0  0  0
    4.6772   -8.0066   -7.6638 C   0  0  0  0  0  0  0  0  0  0  0  0
    3.5010   -7.3771   -7.5231 F   0  0  0  0  0  0  0  0  0  0  0  0
    5.1490   -8.7915   -6.6141 C   0  0  0  0  0  0  0  0  0  0  0  0
    4.4324   -8.9008   -5.4867 F   0  0  0  0  0  0  0  0  0  0  0  0
    6.3688   -9.4427   -6.7240 C   0  0  0  0  0  0  0  0  0  0  0  0
    6.8226  -10.1945   -5.7116 F   0  0  0  0  0  0  0  0  0  0  0  0
    7.1229   -9.3056   -7.8792 C   0  0  0  0  0  0  0  0  0  0  0  0
    8.2974   -9.9414   -7.9914 F   0  0  0  0  0  0  0  0  0  0  0  0
    6.6672   -8.4999   -8.9189 C   0  0  0  0  0  0  0  0  0  0  0  0
    7.4306   -8.3688  -10.0142 F   0  0  0  0  0  0  0  0  0  0  0  0
    4.5722   -7.5820  -11.1933 C   0  0  0  0  0  0  0  0  0  0  0  0
    4.4969   -8.9287  -11.5001 C   0  0  0  0  0  0  0  0  0  0  0  0
    4.0999   -9.0499  -12.8369 C   0  0  0  0  0  0  0  0  0  0  0  0
    3.8840   -7.7800  -13.3492 C   0  0  0  0  0  0  0  0  0  0  0  0
    4.1813   -6.8892  -12.3311 N   0  0  0  0  0  0  0  0  0  0  0  0
    3.4471   -7.4080  -14.6715 C   0  0  0  0  0  0  0  0  0  0  0  0
    3.1735   -8.5160  -15.6436 C   0  0  0  0  0  0  0  0  0  0  0  0
    4.0557   -8.8113  -16.6918 C   0  0  0  0  0  0  0  0  0  0  0  0
    5.1426   -8.0517  -16.8938 F   0  0  0  0  0  0  0  0  0  0  0  0
    3.8068   -9.8758  -17.5543 C   0  0  0  0  0  0  0  0  0  0  0  0
    4.6456  -10.1232  -18.5698 F   0  0  0  0  0  0  0  0  0  0  0  0
    2.6889  -10.6767  -17.3692 C   0  0  0  0  0  0  0  0  0  0  0  0
    2.4579  -11.7078  -18.1935 F   0  0  0  0  0  0  0  0  0  0  0  0
    1.8080  -10.4060  -16.3332 C   0  0  0  0  0  0  0  0  0  0  0  0
    0.7333  -11.1846  -16.1466 F   0  0  0  0  0  0  0  0  0  0  0  0
    2.0408   -9.3288  -15.4841 C   0  0  0  0  0  0  0  0  0  0  0  0
    1.1699   -9.0872  -14.4927 F   0  0  0  0  0  0  0  0  0  0  0  0
    3.2334   -6.1394  -15.0990 C   0  0  0  0  0  0  0  0  0  0  0  0
    3.3548   -4.9499  -14.3948 N   0  0  0  0  0  0  0  0  0  0  0  0
    3.0319   -3.9971  -15.2355 C   0  0  0  0  0  0  0  0  0  0  0  0
    2.9706   -2.5117  -15.0080 C   0  0  0  0  0  0  0  0  0  0  0  0
    2.5484   -1.5851  -16.0873 C   0  0  0  0  0  0  0  0  0  0  0  0
    1.2093   -1.5263  -16.4941 C   0  0  0  0  0  0  0  0  0  0  0  0
    0.3056   -2.3483  -15.9409 F   0  0  0  0  0  0  0  0  0  0  0  0
    0.7986   -0.6399  -17.4871 C   0  0  0  0  0  0  0  0  0  0  0  0
   -0.4835   -0.6206  -17.8760 F   0  0  0  0  0  0  0  0  0  0  0  0
    1.7151    0.2177  -18.0775 C   0  0  0  0  0  0  0  0  0  0  0  0
    1.3166    1.0788  -19.0236 F   0  0  0  0  0  0  0  0  0  0  0  0
    3.0457    0.1783  -17.6893 C   0  0  0  0  0  0  0  0  0  0  0  0
    3.9321    1.0125  -18.2497 F   0  0  0  0  0  0  0  0  0  0  0  0
    3.4618   -0.7238  -16.7128 C   0  0  0  0  0  0  0  0  0  0  0  0
    4.7553   -0.7448  -16.3597 F   0  0  0  0  0  0  0  0  0  0  0  0
    3.3218   -2.0175  -13.8062 C   0  0  0  0  0  0  0  0  0  0  0  0
    3.3810   -0.6021  -13.4498 C   0  0  0  0  0  0  0  0  0  0  0  0
    3.9142   -0.4829  -12.2229 C   0  0  0  0  0  0  0  0  0  0  0  0
    4.1737   -1.8180  -11.6883 C   0  0  0  0  0  0  0  0  0  0  0  0
    3.7453   -2.6681  -12.6750 N   0  0  0  0  0  0  0  0  0  0  0  0
    2.6979   -4.4744  -16.5843 C   0  0  0  0  0  0  0  0  0  0  0  0
    2.8104   -5.7882  -16.4398 C   0  0  0  0  0  0  0  0  0  0  0  0
    5.3781   -4.9797   -8.5175 C   0  0  0  0  0  0  0  0  0  0  0  0
    5.2795   -3.6615   -8.6099 C   0  0  0  0  0  0  0  0  0  0  0  0
    6.6340   -0.7891   -9.5356 C   0  0  0  0  0  0  0  0  0  0  0  0
    7.1441    0.1854   -8.6769 C   0  0  0  0  0  0  0  0  0  0  0  0
    1.4220    3.4398   -3.2006 C   0  0  0  0  0  0  0  0  0  0  0  0
    0.8878    2.9580   -1.8544 C   0  0  0  0  0  0  0  0  0  0  0  0
    0.2427    3.7026   -1.1187 O   0  0  0  0  0  0  0  0  0  0  0  0
    0.4555   -0.5579    0.9752 H   0  0  0  0  0  0  0  0  0  0  0  0
    2.0210   -0.0537    0.3853 H   0  0  0  0  0  0  0  0  0  0  0  0
    0.9680   -1.0047   -0.6344 H   0  0  0  0  0  0  0  0  0  0  0  0
    0.4193    1.7761    0.3328 H   0  0  0  0  0  0  0  0  0  0  0  0
   -0.6066    0.7724   -0.7407 H   0  0  0  0  0  0  0  0  0  0  0  0
    0.4793    0.6086   -3.3667 H   0  0  0  0  0  0  0  0  0  0  0  0
    1.6971   -0.2141   -2.3733 H   0  0  0  0  0  0  0  0  0  0  0  0
    4.5163    2.7190   -4.3696 H   0  0  0  0  0  0  0  0  0  0  0  0
    3.8232    4.2824   -3.8663 H   0  0  0  0  0  0  0  0  0  0  0  0
    3.0249    2.7594   -6.2435 H   0  0  0  0  0  0  0  0  0  0  0  0
    2.4602    5.5672   -5.5847 H   0  0  0  0  0  0  0  0  0  0  0  0
    1.3754    4.3083   -5.4704 H   0  0  0  0  0  0  0  0  0  0  0  0
    1.9561    4.7747   -6.9603 H   0  0  0  0  0  0  0  0  0  0  0  0
    7.1365    5.9286   -6.0363 H   0  0  0  0  0  0  0  0  0  0  0  0
    6.4163    5.3990   -7.5569 H   0  0  0  0  0  0  0  0  0  0  0  0
    8.0388    3.6281   -5.7633 H   0  0  0  0  0  0  0  0  0  0  0  0
    8.6697    4.4844   -7.1736 H   0  0  0  0  0  0  0  0  0  0  0  0
    4.2321    1.3926   -7.5223 H   0  0  0  0  0  0  0  0  0  0  0  0
    3.3468   -0.2899   -9.0270 H   0  0  0  0  0  0  0  0  0  0  0  0
    4.6985   -9.7088  -10.8552 H   0  0  0  0  0  0  0  0  0  0  0  0
    3.9869   -9.9357  -13.3542 H   0  0  0  0  0  0  0  0  0  0  0  0
    4.1239   -5.9091  -12.4036 H   0  0  0  0  0  0  0  0  0  0  0  0
    3.0644    0.1797  -14.0445 H   0  0  0  0  0  0  0  0  0  0  0  0
    4.1089    0.4065  -11.7369 H   0  0  0  0  0  0  0  0  0  0  0  0
    3.7419   -3.6481  -12.5811 H   0  0  0  0  0  0  0  0  0  0  0  0
    2.4428   -3.9306  -17.4235 H   0  0  0  0  0  0  0  0  0  0  0  0
    2.6207   -6.4736  -17.1877 H   0  0  0  0  0  0  0  0  0  0  0  0
    5.6869   -5.4835   -7.6715 H   0  0  0  0  0  0  0  0  0  0  0  0
    5.4461   -2.9430   -7.8881 H   0  0  0  0  0  0  0  0  0  0  0  0
    7.2802   -1.3755  -10.0865 H   0  0  0  0  0  0  0  0  0  0  0  0
    8.1631    0.3208   -8.5853 H   0  0  0  0  0  0  0  0  0  0  0  0
    0.6442    3.3517   -3.9301 H   0  0  0  0  0  0  0  0  0  0  0  0
    1.7358    4.4558   -3.0816 H   0  0  0  0  0  0  0  0  0  0  0  0
  1  2  1  0  0  0  0
  1 85  1  0  0  0  0
  1 86  1  0  0  0  0
  1 87  1  0  0  0  0
  2  3  1  0  0  0  0
  2 88  1  0  0  0  0
  2 89  1  0  0  0  0
  3  4  1  0  0  0  0
  3 83  1  0  0  0  0
  4  5  1  0  0  0  0
  4 90  1  0  0  0  0
  4 91  1  0  0  0  0
  5  6  2  0  0  0  0
  5  7  1  0  0  0  0
  7  8  1  0  0  0  0
  7 82  1  0  0  0  0
  8  9  1  0  0  0  0
  8 92  1  0  0  0  0
  8 93  1  0  0  0  0
  9 10  1  0  0  0  0
  9 11  1  0  0  0  0
  9 94  1  6  0  0  0
 10 95  1  0  0  0  0
 10 96  1  0  0  0  0
 10 97  1  0  0  0  0
 11 12  2  0  0  0  0
 11 13  1  0  0  0  0
 13 14  1  0  0  0  0
 14 15  1  0  0  0  0
 14 98  1  0  0  0  0
 14 99  1  0  0  0  0
 15 16  1  0  0  0  0
 15100  1  0  0  0  0
 15101  1  0  0  0  0
 16 17  1  0  0  0  0
 17 18  2  0  0  0  0
 17 19  1  0  0  0  0
 19 20  1  0  0  0  0
 19 81  2  0  0  0  0
 20 21  2  0  0  0  0
 20102  1  0  0  0  0
 21 22  1  0  0  0  0
 21103  1  0  0  0  0
 22 23  1  0  0  0  0
 22 80  2  0  0  0  0
 23 24  1  0  0  0  0
 23 74  2  0  0  0  0
 24 25  2  0  0  0  0
 24 79  1  0  0  0  0
 25 26  1  0  0  0  0
 26 27  2  0  0  0  0
 26 78  1  0  0  0  0
 27 28  1  0  0  0  0
 27 39  1  0  0  0  0
 28 29  1  0  0  0  0
 28 37  2  0  0  0  0
 29 30  1  0  0  0  0
 29 31  2  0  0  0  0
 31 32  1  0  0  0  0
 31 33  1  0  0  0  0
 33 34  1  0  0  0  0
 33 35  2  0  0  0  0
 35 36  1  0  0  0  0
 35 37  1  0  0  0  0
 37 38  1  0  0  0  0
 39 40  2  0  0  0  0
 39 43  1  0  0  0  0
 40 41  1  0  0  0  0
 40104  1  0  0  0  0
 41 42  2  0  0  0  0
 41105  1  0  0  0  0
 42 43  1  0  0  0  0
 42 44  1  0  0  0  0
 43106  1  0  0  0  0
 44 45  1  0  0  0  0
 44 56  2  0  0  0  0
 45 46  1  0  0  0  0
 45 54  2  0  0  0  0
 46 47  1  0  0  0  0
 46 48  2  0  0  0  0
 48 49  1  0  0  0  0
 48 50  1  0  0  0  0
 50 51  1  0  0  0  0
 50 52  2  0  0  0  0
 52 53  1  0  0  0  0
 52 54  1  0  0  0  0
 54 55  1  0  0  0  0
 56 57  1  0  0  0  0
 56 77  1  0  0  0  0
 57 58  2  0  0  0  0
 58 59  1  0  0  0  0
 58 76  1  0  0  0  0
 59 60  1  0  0  0  0
 59 71  2  0  0  0  0
 60 61  1  0  0  0  0
 60 69  2  0  0  0  0
 61 62  1  0  0  0  0
 61 63  2  0  0  0  0
 63 64  1  0  0  0  0
 63 65  1  0  0  0  0
 65 66  1  0  0  0  0
 65 67  2  0  0  0  0
 67 68  1  0  0  0  0
 67 69  1  0  0  0  0
 69 70  1  0  0  0  0
 71 72  1  0  0  0  0
 71 75  1  0  0  0  0
 72 73  2  0  0  0  0
 72107  1  0  0  0  0
 73 74  1  0  0  0  0
 73108  1  0  0  0  0
 74 75  1  0  0  0  0
 75109  1  0  0  0  0
 76 77  2  0  0  0  0
 76110  1  0  0  0  0
 77111  1  0  0  0  0
 78 79  2  0  0  0  0
 78112  1  0  0  0  0
 79113  1  0  0  0  0
 80 81  1  0  0  0  0
 80114  1  0  0  0  0
 81115  1  0  0  0  0
 82 83  1  0  0  0  0
 82116  1  0  0  0  0
 82117  1  0  0  0  0
 83 84  2  0  0  0  0
M  CHG  1  10   1
M  END
$$$$
