0_4_7020
 OpenBabel04152301363D

128138  0  0  0  0  0  0  0  0999 V2000
    0.9771   -0.7519   -1.3696 O   0  0  0  0  0  0  0  0  0  0  0  0
    2.1938   -0.6105   -1.2522 C   0  0  0  0  0  0  0  0  0  0  0  0
    2.7295    0.5992   -1.5396 O   0  0  0  0  0  0  0  0  0  0  0  0
    4.0518    1.0803   -1.2475 C   0  0  0  0  0  0  0  0  0  0  0  0
    4.1038    1.7034    0.1514 C   0  0  0  0  0  0  0  0  0  0  0  0
    3.6443    0.8106    1.1714 O   0  0  0  0  0  0  0  0  0  0  0  0
    2.2636    0.9761    1.5271 C   0  0  0  0  0  0  0  0  0  0  0  0
    2.1344    1.5586    2.9343 C   0  0  0  0  0  0  0  0  0  0  0  0
    3.0766    2.6322    3.0837 O   0  0  0  0  0  0  0  0  0  0  0  0
    4.2673    2.2367    3.6061 C   0  0  0  0  0  0  0  0  0  0  0  0
    4.4525    1.1881    4.2132 O   0  0  0  0  0  0  0  0  0  0  0  0
    5.3979    3.2018    3.2980 C   0  0  0  0  0  0  0  0  0  0  0  0
    6.1719    3.4520    4.5974 C   0  0  0  0  0  0  0  0  0  0  0  0
    5.4272    4.4457    5.4859 C   0  0  0  0  0  0  0  0  0  0  0  0
    5.2572    5.6864    4.7414 N   0  0  0  0  0  0  0  0  0  0  0  0
    5.9603    6.8104    5.1523 C   0  0  0  0  0  0  0  0  0  0  0  0
    6.4634    6.8880    6.2767 O   0  0  0  0  0  0  0  0  0  0  0  0
    6.1930    7.9416    4.1436 C   0  0  0  0  0  0  0  0  0  0  0  0
    6.7238    7.5675    2.8754 O   0  0  0  0  0  0  0  0  0  0  0  0
    8.0693    7.2982    2.8395 C   0  0  0  0  0  0  0  0  0  0  0  0
    8.6524    6.3162    3.6443 C   0  0  0  0  0  0  0  0  0  0  0  0
    9.9815    5.9310    3.4531 C   0  0  0  0  0  0  0  0  0  0  0  0
   10.7422    6.5413    2.4623 C   0  0  0  0  0  0  0  0  0  0  0  0
   12.3653    6.0349    2.2054 Cl  0  0  0  0  0  0  0  0  0  0  0  0
   10.1902    7.5436    1.6696 C   0  0  0  0  0  0  0  0  0  0  0  0
    8.8532    7.9124    1.8523 C   0  0  0  0  0  0  0  0  0  0  0  0
    8.2002    9.1445    0.8328 Cl  0  0  0  0  0  0  0  0  0  0  0  0
    4.4427    5.5720    3.5359 C   0  0  0  0  0  0  0  0  0  0  0  0
    5.0129    4.5157    2.5905 C   0  0  0  0  0  0  0  0  0  0  0  0
    2.9952   -1.8141   -0.8652 C   0  0  0  0  0  0  0  0  0  0  0  0
    4.1997   -1.8044   -0.1576 C   0  0  0  0  0  0  0  0  0  0  0  0
    4.8638   -2.9833    0.1612 C   0  0  0  0  0  0  0  0  0  0  0  0
    4.3090   -4.2130   -0.1839 C   0  0  0  0  0  0  0  0  0  0  0  0
    5.0999   -5.4305    0.0639 C   0  0  0  0  0  0  0  0  0  0  0  0
    5.8414   -6.0427   -1.0827 C   0  0  0  0  0  0  0  0  0  0  0  0
    6.5894   -7.1125   -1.1106 N   0  0  0  0  0  0  0  0  0  0  0  0
    7.0320   -7.2233   -2.4208 C   0  0  0  0  0  0  0  0  0  0  0  0
    7.8346   -8.1741   -2.9514 C   0  0  0  0  0  0  0  0  0  0  0  0
    8.1059   -8.0904   -4.4229 C   0  0  0  0  0  0  0  0  0  0  0  0
    8.9547   -7.1138   -4.9653 C   0  0  0  0  0  0  0  0  0  0  0  0
    9.5593   -6.2241   -4.1636 F   0  0  0  0  0  0  0  0  0  0  0  0
    9.1359   -7.0085   -6.3427 C   0  0  0  0  0  0  0  0  0  0  0  0
    9.9043   -6.0309   -6.8434 F   0  0  0  0  0  0  0  0  0  0  0  0
    8.4981   -7.8936   -7.1993 C   0  0  0  0  0  0  0  0  0  0  0  0
    8.6634   -7.7829   -8.5247 F   0  0  0  0  0  0  0  0  0  0  0  0
    7.6746   -8.8822   -6.6824 C   0  0  0  0  0  0  0  0  0  0  0  0
    7.0569   -9.7380   -7.5083 F   0  0  0  0  0  0  0  0  0  0  0  0
    7.4728   -8.9755   -5.3080 C   0  0  0  0  0  0  0  0  0  0  0  0
    6.6441   -9.9210   -4.8406 F   0  0  0  0  0  0  0  0  0  0  0  0
    8.3713   -9.2701   -2.1927 C   0  0  0  0  0  0  0  0  0  0  0  0
    9.1348  -10.3366   -2.6272 C   0  0  0  0  0  0  0  0  0  0  0  0
    9.3861  -11.1647   -1.5266 C   0  0  0  0  0  0  0  0  0  0  0  0
    8.8163  -10.5911   -0.3992 C   0  0  0  0  0  0  0  0  0  0  0  0
    8.1912   -9.4326   -0.8243 N   0  0  0  0  0  0  0  0  0  0  0  0
    8.8434  -11.0690    0.9604 C   0  0  0  0  0  0  0  0  0  0  0  0
    9.5923  -12.3393    1.2225 C   0  0  0  0  0  0  0  0  0  0  0  0
    8.9204  -13.5456    1.4641 C   0  0  0  0  0  0  0  0  0  0  0  0
    7.5807  -13.5711    1.5293 F   0  0  0  0  0  0  0  0  0  0  0  0
    9.6285  -14.7249    1.6712 C   0  0  0  0  0  0  0  0  0  0  0  0
    8.9701  -15.8612    1.9377 F   0  0  0  0  0  0  0  0  0  0  0  0
   11.0147  -14.7240    1.6119 C   0  0  0  0  0  0  0  0  0  0  0  0
   11.6945  -15.8629    1.8025 F   0  0  0  0  0  0  0  0  0  0  0  0
   11.6971  -13.5426    1.3612 C   0  0  0  0  0  0  0  0  0  0  0  0
   13.0354  -13.5431    1.2925 F   0  0  0  0  0  0  0  0  0  0  0  0
   10.9937  -12.3568    1.1788 C   0  0  0  0  0  0  0  0  0  0  0  0
   11.6773  -11.2266    0.9445 F   0  0  0  0  0  0  0  0  0  0  0  0
    8.2622  -10.4700    2.0293 C   0  0  0  0  0  0  0  0  0  0  0  0
    7.5213   -9.2992    2.0845 N   0  0  0  0  0  0  0  0  0  0  0  0
    7.1533   -9.1609    3.3369 C   0  0  0  0  0  0  0  0  0  0  0  0
    6.3338   -8.0673    3.9685 C   0  0  0  0  0  0  0  0  0  0  0  0
    6.0402   -8.0553    5.4260 C   0  0  0  0  0  0  0  0  0  0  0  0
    7.0551   -7.8591    6.3722 C   0  0  0  0  0  0  0  0  0  0  0  0
    8.3243   -7.6994    5.9694 F   0  0  0  0  0  0  0  0  0  0  0  0
    6.7773   -7.8621    7.7390 C   0  0  0  0  0  0  0  0  0  0  0  0
    7.7734   -7.7142    8.6232 F   0  0  0  0  0  0  0  0  0  0  0  0
    5.4757   -8.0331    8.1861 C   0  0  0  0  0  0  0  0  0  0  0  0
    5.2090   -8.0309    9.4993 F   0  0  0  0  0  0  0  0  0  0  0  0
    4.4525   -8.2159    7.2695 C   0  0  0  0  0  0  0  0  0  0  0  0
    3.1911   -8.3699    7.6947 F   0  0  0  0  0  0  0  0  0  0  0  0
    4.7338   -8.2424    5.9051 C   0  0  0  0  0  0  0  0  0  0  0  0
    3.7242   -8.4393    5.0444 F   0  0  0  0  0  0  0  0  0  0  0  0
    5.8367   -7.1057    3.1685 C   0  0  0  0  0  0  0  0  0  0  0  0
    5.0114   -5.9791    3.5919 C   0  0  0  0  0  0  0  0  0  0  0  0
    4.6312   -5.2859    2.5065 C   0  0  0  0  0  0  0  0  0  0  0  0
    5.2351   -5.8919    1.3188 C   0  0  0  0  0  0  0  0  0  0  0  0
    5.9438   -6.9560    1.8079 N   0  0  0  0  0  0  0  0  0  0  0  0
    7.6132  -10.2389    4.2207 C   0  0  0  0  0  0  0  0  0  0  0  0
    8.3111  -10.9920    3.3815 C   0  0  0  0  0  0  0  0  0  0  0  0
    6.4676   -6.1178   -3.1620 C   0  0  0  0  0  0  0  0  0  0  0  0
    5.7394   -5.3422   -2.3743 C   0  0  0  0  0  0  0  0  0  0  0  0
    3.0755   -4.2565   -0.8385 C   0  0  0  0  0  0  0  0  0  0  0  0
    2.4333   -3.0643   -1.1848 C   0  0  0  0  0  0  0  0  0  0  0  0
    4.3248    1.8192   -1.9717 H   0  0  0  0  0  0  0  0  0  0  0  0
    4.7336    0.2565   -1.2831 H   0  0  0  0  0  0  0  0  0  0  0  0
    3.4879    2.5783    0.1595 H   0  0  0  0  0  0  0  0  0  0  0  0
    5.1263    1.9371    0.3632 H   0  0  0  0  0  0  0  0  0  0  0  0
    1.7760    0.0242    1.4948 H   0  0  0  0  0  0  0  0  0  0  0  0
    1.8078    1.6504    0.8325 H   0  0  0  0  0  0  0  0  0  0  0  0
    2.3398    0.7976    3.6579 H   0  0  0  0  0  0  0  0  0  0  0  0
    1.1407    1.9260    3.0839 H   0  0  0  0  0  0  0  0  0  0  0  0
    6.0094    2.7272    2.5593 H   0  0  0  0  0  0  0  0  0  0  0  0
    7.1375    3.8476    4.3606 H   0  0  0  0  0  0  0  0  0  0  0  0
    6.2694    2.5255    5.1238 H   0  0  0  0  0  0  0  0  0  0  0  0
    5.9935    4.6316    6.3745 H   0  0  0  0  0  0  0  0  0  0  0  0
    4.4732    4.0488    5.7640 H   0  0  0  0  0  0  0  0  0  0  0  0
    6.8738    8.6374    4.5878 H   0  0  0  0  0  0  0  0  0  0  0  0
    5.2212    8.3385    3.9363 H   0  0  0  0  0  0  0  0  0  0  0  0
    8.0945    5.8700    4.3890 H   0  0  0  0  0  0  0  0  0  0  0  0
   10.3975    5.1955    4.0456 H   0  0  0  0  0  0  0  0  0  0  0  0
   10.7641    8.0120    0.9511 H   0  0  0  0  0  0  0  0  0  0  0  0
    4.4241    6.5172    3.0347 H   0  0  0  0  0  0  0  0  0  0  0  0
    3.4531    5.2792    3.8186 H   0  0  0  0  0  0  0  0  0  0  0  0
    4.2776    4.2961    1.8449 H   0  0  0  0  0  0  0  0  0  0  0  0
    5.9092    4.9209    2.1693 H   0  0  0  0  0  0  0  0  0  0  0  0
    4.6056   -0.9018    0.1350 H   0  0  0  0  0  0  0  0  0  0  0  0
    5.7696   -2.9471    0.6545 H   0  0  0  0  0  0  0  0  0  0  0  0
    9.4622  -10.4949   -3.5930 H   0  0  0  0  0  0  0  0  0  0  0  0
    9.9086  -12.0543   -1.5501 H   0  0  0  0  0  0  0  0  0  0  0  0
    7.6922   -8.8143   -0.2430 H   0  0  0  0  0  0  0  0  0  0  0  0
    4.7607   -5.7521    4.5669 H   0  0  0  0  0  0  0  0  0  0  0  0
    4.0131   -4.4595    2.5093 H   0  0  0  0  0  0  0  0  0  0  0  0
    6.4785   -7.5559    1.2391 H   0  0  0  0  0  0  0  0  0  0  0  0
    7.4393  -10.3748    5.2288 H   0  0  0  0  0  0  0  0  0  0  0  0
    8.8251  -11.8436    3.6564 H   0  0  0  0  0  0  0  0  0  0  0  0
    6.6130   -5.9550   -4.1707 H   0  0  0  0  0  0  0  0  0  0  0  0
    5.2325   -4.4734   -2.6050 H   0  0  0  0  0  0  0  0  0  0  0  0
    2.6406   -5.1645   -1.0653 H   0  0  0  0  0  0  0  0  0  0  0  0
    1.5308   -3.1014   -1.6839 H   0  0  0  0  0  0  0  0  0  0  0  0
  1  2  2  0  0  0  0
  2  3  1  0  0  0  0
  2 30  1  0  0  0  0
  3  4  1  0  0  0  0
  4  5  1  0  0  0  0
  4 93  1  0  0  0  0
  4 94  1  0  0  0  0
  5  6  1  0  0  0  0
  5 95  1  0  0  0  0
  5 96  1  0  0  0  0
  6  7  1  0  0  0  0
  7  8  1  0  0  0  0
  7 97  1  0  0  0  0
  7 98  1  0  0  0  0
  8  9  1  0  0  0  0
  8 99  1  0  0  0  0
  8100  1  0  0  0  0
  9 10  1  0  0  0  0
 10 11  2  0  0  0  0
 10 12  1  0  0  0  0
 12 13  1  0  0  0  0
 12 29  1  0  0  0  0
 12101  1  0  0  0  0
 13 14  1  0  0  0  0
 13102  1  0  0  0  0
 13103  1  0  0  0  0
 14 15  1  0  0  0  0
 14104  1  0  0  0  0
 14105  1  0  0  0  0
 15 16  1  0  0  0  0
 15 28  1  0  0  0  0
 16 17  2  0  0  0  0
 16 18  1  0  0  0  0
 18 19  1  0  0  0  0
 18106  1  0  0  0  0
 18107  1  0  0  0  0
 19 20  1  0  0  0  0
 20 21  1  0  0  0  0
 20 26  2  0  0  0  0
 21 22  2  0  0  0  0
 21108  1  0  0  0  0
 22 23  1  0  0  0  0
 22109  1  0  0  0  0
 23 24  1  0  0  0  0
 23 25  2  0  0  0  0
 25 26  1  0  0  0  0
 25110  1  0  0  0  0
 26 27  1  0  0  0  0
 28 29  1  0  0  0  0
 28111  1  0  0  0  0
 28112  1  0  0  0  0
 29113  1  0  0  0  0
 29114  1  0  0  0  0
 30 31  1  0  0  0  0
 30 92  2  0  0  0  0
 31 32  2  0  0  0  0
 31115  1  0  0  0  0
 32 33  1  0  0  0  0
 32116  1  0  0  0  0
 33 34  1  0  0  0  0
 33 91  2  0  0  0  0
 34 35  1  0  0  0  0
 34 85  2  0  0  0  0
 35 36  2  0  0  0  0
 35 90  1  0  0  0  0
 36 37  1  0  0  0  0
 37 38  2  0  0  0  0
 37 89  1  0  0  0  0
 38 39  1  0  0  0  0
 38 50  1  0  0  0  0
 39 40  1  0  0  0  0
 39 48  2  0  0  0  0
 40 41  1  0  0  0  0
 40 42  2  0  0  0  0
 42 43  1  0  0  0  0
 42 44  1  0  0  0  0
 44 45  1  0  0  0  0
 44 46  2  0  0  0  0
 46 47  1  0  0  0  0
 46 48  1  0  0  0  0
 48 49  1  0  0  0  0
 50 51  2  0  0  0  0
 50 54  1  0  0  0  0
 51 52  1  0  0  0  0
 51117  1  0  0  0  0
 52 53  2  0  0  0  0
 52118  1  0  0  0  0
 53 54  1  0  0  0  0
 53 55  1  0  0  0  0
 54119  1  0  0  0  0
 55 56  1  0  0  0  0
 55 67  2  0  0  0  0
 56 57  1  0  0  0  0
 56 65  2  0  0  0  0
 57 58  1  0  0  0  0
 57 59  2  0  0  0  0
 59 60  1  0  0  0  0
 59 61  1  0  0  0  0
 61 62  1  0  0  0  0
 61 63  2  0  0  0  0
 63 64  1  0  0  0  0
 63 65  1  0  0  0  0
 65 66  1  0  0  0  0
 67 68  1  0  0  0  0
 67 88  1  0  0  0  0
 68 69  2  0  0  0  0
 69 70  1  0  0  0  0
 69 87  1  0  0  0  0
 70 71  1  0  0  0  0
 70 82  2  0  0  0  0
 71 72  1  0  0  0  0
 71 80  2  0  0  0  0
 72 73  1  0  0  0  0
 72 74  2  0  0  0  0
 74 75  1  0  0  0  0
 74 76  1  0  0  0  0
 76 77  1  0  0  0  0
 76 78  2  0  0  0  0
 78 79  1  0  0  0  0
 78 80  1  0  0  0  0
 80 81  1  0  0  0  0
 82 83  1  0  0  0  0
 82 86  1  0  0  0  0
 83 84  2  0  0  0  0
 83120  1  0  0  0  0
 84 85  1  0  0  0  0
 84121  1  0  0  0  0
 85 86  1  0  0  0  0
 86122  1  0  0  0  0
 87 88  2  0  0  0  0
 87123  1  0  0  0  0
 88124  1  0  0  0  0
 89 90  2  0  0  0  0
 89125  1  0  0  0  0
 90126  1  0  0  0  0
 91 92  1  0  0  0  0
 91127  1  0  0  0  0
 92128  1  0  0  0  0
M  END
$$$$
