0_4_936
 OpenBabel04152301373D

129137  0  0  1  0  0  0  0  0999 V2000
   -0.9605    3.6438    1.1067 C   0  0  0  0  0  0  0  0  0  0  0  0
    0.3349    3.1195    0.5260 C   0  0  0  0  0  0  0  0  0  0  0  0
    1.4751    3.2637    1.3890 N   0  0  0  0  0  0  0  0  0  0  0  0
    2.3128    2.4598    2.0409 C   0  0  0  0  0  0  0  0  0  0  0  0
    3.1774    3.0150    2.7296 O   0  0  0  0  0  0  0  0  0  0  0  0
    2.3216    1.0901    2.0458 N   0  0  0  0  0  0  0  0  0  0  0  0
    1.9124   -0.1473    1.5427 C   0  0  0  0  0  0  0  0  0  0  0  0
    2.2931   -1.1467    2.1691 O   0  0  0  0  0  0  0  0  0  0  0  0
    1.0318   -0.3303    0.3007 C   0  0  1  0  0  0  0  0  0  0  0  0
   -0.4330   -0.2391    0.7189 C   0  0  0  0  0  0  0  0  0  0  0  0
    1.5758    0.4697   -0.7846 N   0  3  0  0  0  0  0  0  0  0  0  0
    1.0223    0.4936   -2.1702 C   0  0  2  0  0  0  0  0  0  0  0  0
    0.4564   -0.8708   -2.5927 C   0  0  0  0  0  0  0  0  0  0  0  0
    2.2268    0.9650   -3.0095 C   0  0  0  0  0  0  0  0  0  0  0  0
    2.9148    1.9259   -2.6675 O   0  0  0  0  0  0  0  0  0  0  0  0
    2.4664    0.2273   -4.1246 O   0  0  0  0  0  0  0  0  0  0  0  0
    3.5504    0.7053   -4.9478 C   0  0  0  0  0  0  0  0  0  0  0  0
    3.1614    0.7526   -6.4267 C   0  0  0  0  0  0  0  0  0  0  0  0
    2.1500    1.6770   -6.8226 O   0  0  0  0  0  0  0  0  0  0  0  0
    0.8675    1.5637   -6.2159 C   0  0  0  0  0  0  0  0  0  0  0  0
   -0.0058    0.3580   -6.6017 C   0  0  0  0  0  0  0  0  0  0  0  0
    0.6430   -0.9110   -6.4054 O   0  0  0  0  0  0  0  0  0  0  0  0
    0.9155   -1.5837   -7.5520 C   0  0  0  0  0  0  0  0  0  0  0  0
    0.6070   -1.2732   -8.6888 O   0  0  0  0  0  0  0  0  0  0  0  0
    1.8329   -2.7028   -7.2742 C   0  0  0  0  0  0  0  0  0  0  0  0
    3.1017   -2.6544   -7.8663 C   0  0  0  0  0  0  0  0  0  0  0  0
    3.9649   -3.7383   -7.7564 C   0  0  0  0  0  0  0  0  0  0  0  0
    3.5462   -4.8950   -7.0881 C   0  0  0  0  0  0  0  0  0  0  0  0
    4.3645   -6.1235   -7.2159 C   0  0  0  0  0  0  0  0  0  0  0  0
    3.9833   -7.1413   -8.2546 C   0  0  0  0  0  0  0  0  0  0  0  0
    4.5502   -8.2836   -8.5472 N   0  0  0  0  0  0  0  0  0  0  0  0
    3.7975   -8.8236   -9.5819 C   0  0  0  0  0  0  0  0  0  0  0  0
    3.9969   -9.9830  -10.2519 C   0  0  0  0  0  0  0  0  0  0  0  0
    3.0097  -10.3499  -11.3212 C   0  0  0  0  0  0  0  0  0  0  0  0
    2.9591   -9.6704  -12.5473 C   0  0  0  0  0  0  0  0  0  0  0  0
    3.7651   -8.6218  -12.7721 F   0  0  0  0  0  0  0  0  0  0  0  0
    2.0544  -10.0465  -13.5375 C   0  0  0  0  0  0  0  0  0  0  0  0
    1.9958   -9.3581  -14.6860 F   0  0  0  0  0  0  0  0  0  0  0  0
    1.2077  -11.1261  -13.3344 C   0  0  0  0  0  0  0  0  0  0  0  0
    0.3465  -11.4944  -14.2929 F   0  0  0  0  0  0  0  0  0  0  0  0
    1.2502  -11.8206  -12.1353 C   0  0  0  0  0  0  0  0  0  0  0  0
    0.4416  -12.8717  -11.9411 F   0  0  0  0  0  0  0  0  0  0  0  0
    2.1329  -11.4292  -11.1326 C   0  0  0  0  0  0  0  0  0  0  0  0
    2.1415  -12.1137   -9.9788 F   0  0  0  0  0  0  0  0  0  0  0  0
    5.0774  -10.8949   -9.9836 C   0  0  0  0  0  0  0  0  0  0  0  0
    5.3772  -12.0878  -10.6173 C   0  0  0  0  0  0  0  0  0  0  0  0
    6.4795  -12.6588   -9.9735 C   0  0  0  0  0  0  0  0  0  0  0  0
    6.9045  -11.7925   -8.9789 C   0  0  0  0  0  0  0  0  0  0  0  0
    6.0322  -10.7163   -8.9932 N   0  0  0  0  0  0  0  0  0  0  0  0
    8.0210  -11.9372   -8.0799 C   0  0  0  0  0  0  0  0  0  0  0  0
    8.8658  -13.1721   -8.2121 C   0  0  0  0  0  0  0  0  0  0  0  0
    8.8538  -14.1825   -7.2396 C   0  0  0  0  0  0  0  0  0  0  0  0
    8.1168  -14.0405   -6.1276 F   0  0  0  0  0  0  0  0  0  0  0  0
    9.6327  -15.3272   -7.3876 C   0  0  0  0  0  0  0  0  0  0  0  0
    9.6447  -16.2562   -6.4217 F   0  0  0  0  0  0  0  0  0  0  0  0
   10.4066  -15.5014   -8.5254 C   0  0  0  0  0  0  0  0  0  0  0  0
   11.1488  -16.6079   -8.6697 F   0  0  0  0  0  0  0  0  0  0  0  0
   10.4165  -14.5256   -9.5100 C   0  0  0  0  0  0  0  0  0  0  0  0
   11.1504  -14.6993  -10.6179 F   0  0  0  0  0  0  0  0  0  0  0  0
    9.6652  -13.3651   -9.3497 C   0  0  0  0  0  0  0  0  0  0  0  0
    9.7052  -12.4337  -10.3145 F   0  0  0  0  0  0  0  0  0  0  0  0
    8.3838  -11.0314   -7.1381 C   0  0  0  0  0  0  0  0  0  0  0  0
    7.8055   -9.8060   -6.8320 N   0  0  0  0  0  0  0  0  0  0  0  0
    8.5072   -9.3121   -5.8403 C   0  0  0  0  0  0  0  0  0  0  0  0
    8.3525   -7.9928   -5.1270 C   0  0  0  0  0  0  0  0  0  0  0  0
    9.2667   -7.6176   -4.0157 C   0  0  0  0  0  0  0  0  0  0  0  0
   10.6273   -7.3703   -4.2432 C   0  0  0  0  0  0  0  0  0  0  0  0
   11.1270   -7.4669   -5.4841 F   0  0  0  0  0  0  0  0  0  0  0  0
   11.4912   -7.0730   -3.1904 C   0  0  0  0  0  0  0  0  0  0  0  0
   12.7977   -6.8955   -3.4290 F   0  0  0  0  0  0  0  0  0  0  0  0
   11.0054   -6.9833   -1.8945 C   0  0  0  0  0  0  0  0  0  0  0  0
   11.8365   -6.6982   -0.8830 F   0  0  0  0  0  0  0  0  0  0  0  0
    9.6589   -7.2011   -1.6476 C   0  0  0  0  0  0  0  0  0  0  0  0
    9.1819   -7.1040   -0.3993 F   0  0  0  0  0  0  0  0  0  0  0  0
    8.8011   -7.5295   -2.6949 C   0  0  0  0  0  0  0  0  0  0  0  0
    7.5083   -7.7594   -2.4214 F   0  0  0  0  0  0  0  0  0  0  0  0
    7.3572   -7.1620   -5.4931 C   0  0  0  0  0  0  0  0  0  0  0  0
    7.0804   -5.8489   -4.9135 C   0  0  0  0  0  0  0  0  0  0  0  0
    5.9644   -5.3480   -5.4704 C   0  0  0  0  0  0  0  0  0  0  0  0
    5.4684   -6.2935   -6.4681 C   0  0  0  0  0  0  0  0  0  0  0  0
    6.3727   -7.3249   -6.4358 N   0  0  0  0  0  0  0  0  0  0  0  0
    9.5964  -10.1879   -5.3853 C   0  0  0  0  0  0  0  0  0  0  0  0
    9.5045  -11.1992   -6.2370 C   0  0  0  0  0  0  0  0  0  0  0  0
    2.7176   -7.8996   -9.8504 C   0  0  0  0  0  0  0  0  0  0  0  0
    2.8053   -6.8260   -9.0793 C   0  0  0  0  0  0  0  0  0  0  0  0
    2.2901   -4.9211   -6.4535 C   0  0  0  0  0  0  0  0  0  0  0  0
    1.4289   -3.8211   -6.5443 C   0  0  0  0  0  0  0  0  0  0  0  0
   -0.0556    1.5689   -2.4917 C   0  0  0  0  0  0  0  0  0  0  0  0
   -0.6168    1.3860   -3.7092 F   0  0  0  0  0  0  0  0  0  0  0  0
   -1.0819    1.5208   -1.6064 F   0  0  0  0  0  0  0  0  0  0  0  0
    0.4136    2.8334   -2.4586 F   0  0  0  0  0  0  0  0  0  0  0  0
   -1.7523    3.4973    0.4021 H   0  0  0  0  0  0  0  0  0  0  0  0
   -0.8598    4.6879    1.3181 H   0  0  0  0  0  0  0  0  0  0  0  0
   -1.1852    3.1170    2.0105 H   0  0  0  0  0  0  0  0  0  0  0  0
    0.5334    3.6500   -0.3818 H   0  0  0  0  0  0  0  0  0  0  0  0
    0.1980    2.0691    0.3747 H   0  0  0  0  0  0  0  0  0  0  0  0
    1.6961    4.2114    1.5382 H   0  0  0  0  0  0  0  0  0  0  0  0
    2.9296    0.8581    2.7845 H   0  0  0  0  0  0  0  0  0  0  0  0
    1.0470   -1.3013   -0.1486 H   0  0  0  0  0  0  0  0  0  0  0  0
   -0.6097    0.7022    1.1961 H   0  0  0  0  0  0  0  0  0  0  0  0
   -0.6595   -1.0325    1.4002 H   0  0  0  0  0  0  0  0  0  0  0  0
   -1.0568   -0.3230   -0.1464 H   0  0  0  0  0  0  0  0  0  0  0  0
    2.5481    0.1771   -0.8816 H   0  0  0  0  0  0  0  0  0  0  0  0
    1.3376    1.4094   -0.4674 H   0  0  0  0  0  0  0  0  0  0  0  0
    0.0725   -0.8046   -3.5893 H   0  0  0  0  0  0  0  0  0  0  0  0
   -0.3309   -1.1526   -1.9252 H   0  0  0  0  0  0  0  0  0  0  0  0
    1.2335   -1.6055   -2.5579 H   0  0  0  0  0  0  0  0  0  0  0  0
    4.3889    0.0510   -4.8308 H   0  0  0  0  0  0  0  0  0  0  0  0
    3.7925    1.6996   -4.6352 H   0  0  0  0  0  0  0  0  0  0  0  0
    2.8229   -0.2254   -6.6983 H   0  0  0  0  0  0  0  0  0  0  0  0
    4.0450    1.0926   -6.9253 H   0  0  0  0  0  0  0  0  0  0  0  0
    0.3181    2.4477   -6.4641 H   0  0  0  0  0  0  0  0  0  0  0  0
    1.0738    1.4242   -5.1753 H   0  0  0  0  0  0  0  0  0  0  0  0
   -0.2679    0.4474   -7.6353 H   0  0  0  0  0  0  0  0  0  0  0  0
   -0.8626    0.3741   -5.9610 H   0  0  0  0  0  0  0  0  0  0  0  0
    3.3960   -1.8123   -8.3851 H   0  0  0  0  0  0  0  0  0  0  0  0
    4.9110   -3.6906   -8.1659 H   0  0  0  0  0  0  0  0  0  0  0  0
    4.8744  -12.4871  -11.4252 H   0  0  0  0  0  0  0  0  0  0  0  0
    6.9047  -13.5713  -10.2007 H   0  0  0  0  0  0  0  0  0  0  0  0
    6.0825   -9.9399   -8.3899 H   0  0  0  0  0  0  0  0  0  0  0  0
    7.6509   -5.3811   -4.1919 H   0  0  0  0  0  0  0  0  0  0  0  0
    5.5288   -4.4432   -5.2322 H   0  0  0  0  0  0  0  0  0  0  0  0
    6.3205   -8.1069   -7.0316 H   0  0  0  0  0  0  0  0  0  0  0  0
   10.2594  -10.0511   -4.6063 H   0  0  0  0  0  0  0  0  0  0  0  0
   10.1500  -12.0042   -6.2555 H   0  0  0  0  0  0  0  0  0  0  0  0
    1.9760   -8.0562  -10.5508 H   0  0  0  0  0  0  0  0  0  0  0  0
    2.2044   -5.9872   -9.0614 H   0  0  0  0  0  0  0  0  0  0  0  0
    2.0025   -5.7554   -5.9185 H   0  0  0  0  0  0  0  0  0  0  0  0
    0.5084   -3.8372   -6.0780 H   0  0  0  0  0  0  0  0  0  0  0  0
  1  2  1  0  0  0  0
  1 92  1  0  0  0  0
  1 93  1  0  0  0  0
  1 94  1  0  0  0  0
  2  3  1  0  0  0  0
  2 95  1  0  0  0  0
  2 96  1  0  0  0  0
  3  4  1  0  0  0  0
  3 97  1  0  0  0  0
  4  5  2  0  0  0  0
  4  6  1  0  0  0  0
  6  7  1  0  0  0  0
  6 98  1  0  0  0  0
  7  8  2  0  0  0  0
  7  9  1  0  0  0  0
  9 10  1  0  0  0  0
  9 11  1  0  0  0  0
  9 99  1  6  0  0  0
 10100  1  0  0  0  0
 10101  1  0  0  0  0
 10102  1  0  0  0  0
 11103  1  0  0  0  0
 11104  1  0  0  0  0
 12 14  1  6  0  0  0
 12 88  1  0  0  0  0
 12 13  1  0  0  0  0
 12 11  1  0  0  0  0
 13105  1  0  0  0  0
 13106  1  0  0  0  0
 13107  1  0  0  0  0
 14 15  2  0  0  0  0
 14 16  1  0  0  0  0
 16 17  1  0  0  0  0
 17 18  1  0  0  0  0
 17108  1  0  0  0  0
 17109  1  0  0  0  0
 18 19  1  0  0  0  0
 18110  1  0  0  0  0
 18111  1  0  0  0  0
 19 20  1  0  0  0  0
 20 21  1  0  0  0  0
 20112  1  0  0  0  0
 20113  1  0  0  0  0
 21 22  1  0  0  0  0
 21114  1  0  0  0  0
 21115  1  0  0  0  0
 22 23  1  0  0  0  0
 23 24  2  0  0  0  0
 23 25  1  0  0  0  0
 25 26  1  0  0  0  0
 25 87  2  0  0  0  0
 26 27  2  0  0  0  0
 26116  1  0  0  0  0
 27 28  1  0  0  0  0
 27117  1  0  0  0  0
 28 29  1  0  0  0  0
 28 86  2  0  0  0  0
 29 30  1  0  0  0  0
 29 80  2  0  0  0  0
 30 31  2  0  0  0  0
 30 85  1  0  0  0  0
 31 32  1  0  0  0  0
 32 33  2  0  0  0  0
 32 84  1  0  0  0  0
 33 34  1  0  0  0  0
 33 45  1  0  0  0  0
 34 35  1  0  0  0  0
 34 43  2  0  0  0  0
 35 36  1  0  0  0  0
 35 37  2  0  0  0  0
 37 38  1  0  0  0  0
 37 39  1  0  0  0  0
 39 40  1  0  0  0  0
 39 41  2  0  0  0  0
 41 42  1  0  0  0  0
 41 43  1  0  0  0  0
 43 44  1  0  0  0  0
 45 46  2  0  0  0  0
 45 49  1  0  0  0  0
 46 47  1  0  0  0  0
 46118  1  0  0  0  0
 47 48  2  0  0  0  0
 47119  1  0  0  0  0
 48 49  1  0  0  0  0
 48 50  1  0  0  0  0
 49120  1  0  0  0  0
 50 51  1  0  0  0  0
 50 62  2  0  0  0  0
 51 52  1  0  0  0  0
 51 60  2  0  0  0  0
 52 53  1  0  0  0  0
 52 54  2  0  0  0  0
 54 55  1  0  0  0  0
 54 56  1  0  0  0  0
 56 57  1  0  0  0  0
 56 58  2  0  0  0  0
 58 59  1  0  0  0  0
 58 60  1  0  0  0  0
 60 61  1  0  0  0  0
 62 63  1  0  0  0  0
 62 83  1  0  0  0  0
 63 64  2  0  0  0  0
 64 65  1  0  0  0  0
 64 82  1  0  0  0  0
 65 66  1  0  0  0  0
 65 77  2  0  0  0  0
 66 67  1  0  0  0  0
 66 75  2  0  0  0  0
 67 68  1  0  0  0  0
 67 69  2  0  0  0  0
 69 70  1  0  0  0  0
 69 71  1  0  0  0  0
 71 72  1  0  0  0  0
 71 73  2  0  0  0  0
 73 74  1  0  0  0  0
 73 75  1  0  0  0  0
 75 76  1  0  0  0  0
 77 78  1  0  0  0  0
 77 81  1  0  0  0  0
 78 79  2  0  0  0  0
 78121  1  0  0  0  0
 79 80  1  0  0  0  0
 79122  1  0  0  0  0
 80 81  1  0  0  0  0
 81123  1  0  0  0  0
 82 83  2  0  0  0  0
 82124  1  0  0  0  0
 83125  1  0  0  0  0
 84 85  2  0  0  0  0
 84126  1  0  0  0  0
 85127  1  0  0  0  0
 86 87  1  0  0  0  0
 86128  1  0  0  0  0
 87129  1  0  0  0  0
 88 89  1  0  0  0  0
 88 90  1  0  0  0  0
 88 91  1  0  0  0  0
M  CHG  1  11   1
M  END
$$$$
