0_4_3398
 OpenBabel04152301373D

136145  0  0  1  0  0  0  0  0999 V2000
   -0.7507    1.5145    0.5037 C   0  0  0  0  0  0  0  0  0  0  0  0
   -1.5104    1.2154   -0.7923 C   0  0  0  0  0  0  0  0  0  0  0  0
   -1.5066    2.4656   -1.6828 C   0  0  0  0  0  0  0  0  0  0  0  0
   -0.9915   -0.0686   -1.5096 C   0  0  2  0  0  0  0  0  0  0  0  0
    0.5615   -0.0992   -1.6834 C   0  0  0  0  0  0  0  0  0  0  0  0
    1.1106   -1.1843   -2.5254 N   0  3  0  0  0  0  0  0  0  0  0  0
    2.5617   -1.0152   -2.6658 C   0  0  0  0  0  0  0  0  0  0  0  0
    0.8412   -2.5167   -1.9846 C   0  0  0  0  0  0  0  0  0  0  0  0
   -1.6830   -0.2343   -2.7975 N   0  0  0  0  0  0  0  0  0  0  0  0
   -2.4522   -1.2553   -3.2899 C   0  0  0  0  0  0  0  0  0  0  0  0
   -2.7589   -1.2445   -4.4803 O   0  0  0  0  0  0  0  0  0  0  0  0
   -2.8560   -2.3514   -2.4186 C   0  0  0  0  0  0  0  0  0  0  0  0
   -3.4057   -2.2147   -1.1619 C   0  0  0  0  0  0  0  0  0  0  0  0
   -3.6918   -3.7124   -0.4041 S   0  0  0  0  0  0  0  0  0  0  0  0
   -3.2069   -4.6152   -1.7930 C   0  0  0  0  0  0  0  0  0  0  0  0
   -3.2291   -6.0468   -1.8486 C   0  0  0  0  0  0  0  0  0  0  0  0
   -3.9218   -6.7956   -0.9766 C   0  0  0  0  0  0  0  0  0  0  0  0
   -4.0197   -8.2671   -0.9753 C   0  0  0  0  0  0  0  0  0  0  0  0
   -4.8313   -8.8392   -0.2629 O   0  0  0  0  0  0  0  0  0  0  0  0
   -3.0862   -8.8540   -1.7630 O   0  0  0  0  0  0  0  0  0  0  0  0
   -3.0328  -10.2860   -1.6584 C   0  0  0  0  0  0  0  0  0  0  0  0
   -1.7823  -10.7704   -0.9195 C   0  0  0  0  0  0  0  0  0  0  0  0
   -1.6011  -10.3064    0.4149 O   0  0  0  0  0  0  0  0  0  0  0  0
   -1.0601   -8.9955    0.5864 C   0  0  0  0  0  0  0  0  0  0  0  0
    0.4488   -8.8369    0.3520 C   0  0  0  0  0  0  0  0  0  0  0  0
    0.8132   -9.0307   -1.0277 O   0  0  0  0  0  0  0  0  0  0  0  0
    1.5320  -10.1490   -1.2816 C   0  0  0  0  0  0  0  0  0  0  0  0
    1.9576  -10.9625   -0.4716 O   0  0  0  0  0  0  0  0  0  0  0  0
    1.5967  -10.3768   -2.7354 C   0  0  0  0  0  0  0  0  0  0  0  0
    1.1210  -11.5981   -3.2316 C   0  0  0  0  0  0  0  0  0  0  0  0
    1.2389  -11.8948   -4.5884 C   0  0  0  0  0  0  0  0  0  0  0  0
    1.8527  -10.9787   -5.4524 C   0  0  0  0  0  0  0  0  0  0  0  0
    2.1373  -11.3539   -6.8586 C   0  0  0  0  0  0  0  0  0  0  0  0
    3.5328  -11.7580   -7.2413 C   0  0  0  0  0  0  0  0  0  0  0  0
    4.0253  -12.0325   -8.4223 N   0  0  0  0  0  0  0  0  0  0  0  0
    5.3651  -12.3306   -8.2122 C   0  0  0  0  0  0  0  0  0  0  0  0
    6.2981  -12.7044   -9.1202 C   0  0  0  0  0  0  0  0  0  0  0  0
    7.6939  -12.9481   -8.6233 C   0  0  0  0  0  0  0  0  0  0  0  0
    8.0129  -14.0593   -7.8286 C   0  0  0  0  0  0  0  0  0  0  0  0
    7.0529  -14.9161   -7.4490 F   0  0  0  0  0  0  0  0  0  0  0  0
    9.3166  -14.2745   -7.3878 C   0  0  0  0  0  0  0  0  0  0  0  0
    9.5890  -15.3166   -6.5902 F   0  0  0  0  0  0  0  0  0  0  0  0
   10.3310  -13.4059   -7.7619 C   0  0  0  0  0  0  0  0  0  0  0  0
   11.5863  -13.6191   -7.3438 F   0  0  0  0  0  0  0  0  0  0  0  0
   10.0424  -12.3124   -8.5637 C   0  0  0  0  0  0  0  0  0  0  0  0
   11.0234  -11.4793   -8.9379 F   0  0  0  0  0  0  0  0  0  0  0  0
    8.7350  -12.0771   -8.9801 C   0  0  0  0  0  0  0  0  0  0  0  0
    8.4862  -11.0017   -9.7426 F   0  0  0  0  0  0  0  0  0  0  0  0
    6.0421  -12.8556  -10.5291 C   0  0  0  0  0  0  0  0  0  0  0  0
    6.9143  -13.2543  -11.5268 C   0  0  0  0  0  0  0  0  0  0  0  0
    6.2402  -13.1862  -12.7502 C   0  0  0  0  0  0  0  0  0  0  0  0
    4.9298  -12.8060  -12.5087 C   0  0  0  0  0  0  0  0  0  0  0  0
    4.8231  -12.6032  -11.1418 N   0  0  0  0  0  0  0  0  0  0  0  0
    3.8559  -12.6335  -13.4543 C   0  0  0  0  0  0  0  0  0  0  0  0
    4.1572  -12.8863  -14.9044 C   0  0  0  0  0  0  0  0  0  0  0  0
    4.2174  -11.8427  -15.8394 C   0  0  0  0  0  0  0  0  0  0  0  0
    3.9408  -10.5843  -15.4654 F   0  0  0  0  0  0  0  0  0  0  0  0
    4.5281  -12.0939  -17.1738 C   0  0  0  0  0  0  0  0  0  0  0  0
    4.5356  -11.0874  -18.0588 F   0  0  0  0  0  0  0  0  0  0  0  0
    4.8193  -13.3842  -17.5910 C   0  0  0  0  0  0  0  0  0  0  0  0
    5.1301  -13.6217  -18.8727 F   0  0  0  0  0  0  0  0  0  0  0  0
    4.7826  -14.4288  -16.6805 C   0  0  0  0  0  0  0  0  0  0  0  0
    5.0795  -15.6740  -17.0775 F   0  0  0  0  0  0  0  0  0  0  0  0
    4.4407  -14.1860  -15.3531 C   0  0  0  0  0  0  0  0  0  0  0  0
    4.4046  -15.2195  -14.4986 F   0  0  0  0  0  0  0  0  0  0  0  0
    2.5862  -12.2849  -13.1299 C   0  0  0  0  0  0  0  0  0  0  0  0
    2.0415  -12.0333  -11.8769 N   0  0  0  0  0  0  0  0  0  0  0  0
    0.7837  -11.7266  -12.0838 C   0  0  0  0  0  0  0  0  0  0  0  0
   -0.2925  -11.3898  -11.0835 C   0  0  0  0  0  0  0  0  0  0  0  0
   -1.6740  -11.0739  -11.5331 C   0  0  0  0  0  0  0  0  0  0  0  0
   -2.4899  -12.0577  -12.1079 C   0  0  0  0  0  0  0  0  0  0  0  0
   -2.0230  -13.3048  -12.2676 F   0  0  0  0  0  0  0  0  0  0  0  0
   -3.7715  -11.7544  -12.5635 C   0  0  0  0  0  0  0  0  0  0  0  0
   -4.5116  -12.7026  -13.1539 F   0  0  0  0  0  0  0  0  0  0  0  0
   -4.2743  -10.4695  -12.4241 C   0  0  0  0  0  0  0  0  0  0  0  0
   -5.5079  -10.1796  -12.8591 F   0  0  0  0  0  0  0  0  0  0  0  0
   -3.4926   -9.4835  -11.8419 C   0  0  0  0  0  0  0  0  0  0  0  0
   -3.9785   -8.2437  -11.6936 F   0  0  0  0  0  0  0  0  0  0  0  0
   -2.2000   -9.7785  -11.4144 C   0  0  0  0  0  0  0  0  0  0  0  0
   -1.4597   -8.7996  -10.8737 F   0  0  0  0  0  0  0  0  0  0  0  0
    0.0120  -11.3584   -9.7714 C   0  0  0  0  0  0  0  0  0  0  0  0
   -0.9134  -11.0346   -8.6871 C   0  0  0  0  0  0  0  0  0  0  0  0
   -0.2356  -10.9926   -7.5275 C   0  0  0  0  0  0  0  0  0  0  0  0
    1.1631  -11.3273   -7.7848 C   0  0  0  0  0  0  0  0  0  0  0  0
    1.2098  -11.5710   -9.1350 N   0  0  0  0  0  0  0  0  0  0  0  0
    0.3964  -11.7201  -13.5020 C   0  0  0  0  0  0  0  0  0  0  0  0
    1.5189  -12.1069  -14.0917 C   0  0  0  0  0  0  0  0  0  0  0  0
    5.6160  -12.1770   -6.7950 C   0  0  0  0  0  0  0  0  0  0  0  0
    4.5061  -11.8623   -6.1431 C   0  0  0  0  0  0  0  0  0  0  0  0
    2.2933   -9.7392   -4.9525 C   0  0  0  0  0  0  0  0  0  0  0  0
    2.1666   -9.4353   -3.5937 C   0  0  0  0  0  0  0  0  0  0  0  0
   -2.7956   -3.7420   -2.7878 C   0  0  0  0  0  0  0  0  0  0  0  0
   -1.1461    2.4018    0.9522 H   0  0  0  0  0  0  0  0  0  0  0  0
    0.2867    1.6577    0.2841 H   0  0  0  0  0  0  0  0  0  0  0  0
   -0.8620    0.6929    1.1801 H   0  0  0  0  0  0  0  0  0  0  0  0
   -2.5284    0.9870   -0.5547 H   0  0  0  0  0  0  0  0  0  0  0  0
   -0.4987    2.7190   -1.9375 H   0  0  0  0  0  0  0  0  0  0  0  0
   -1.9569    3.2805   -1.1555 H   0  0  0  0  0  0  0  0  0  0  0  0
   -2.0615    2.2688   -2.5762 H   0  0  0  0  0  0  0  0  0  0  0  0
   -1.2211   -0.8998   -0.8761 H   0  0  0  0  0  0  0  0  0  0  0  0
    0.9957   -0.1919   -0.7099 H   0  0  0  0  0  0  0  0  0  0  0  0
    0.8069    0.8078   -2.1952 H   0  0  0  0  0  0  0  0  0  0  0  0
    0.6454   -1.1178   -3.4307 H   0  0  0  0  0  0  0  0  0  0  0  0
    3.0241   -1.0892   -1.7037 H   0  0  0  0  0  0  0  0  0  0  0  0
    2.7696   -0.0545   -3.0885 H   0  0  0  0  0  0  0  0  0  0  0  0
    2.9493   -1.7787   -3.3075 H   0  0  0  0  0  0  0  0  0  0  0  0
    1.3176   -2.6179   -1.0319 H   0  0  0  0  0  0  0  0  0  0  0  0
    1.2235   -3.2578   -2.6551 H   0  0  0  0  0  0  0  0  0  0  0  0
   -0.2145   -2.6489   -1.8713 H   0  0  0  0  0  0  0  0  0  0  0  0
   -1.5734    0.5239   -3.4158 H   0  0  0  0  0  0  0  0  0  0  0  0
   -3.6205   -1.3035   -0.7275 H   0  0  0  0  0  0  0  0  0  0  0  0
   -2.6902   -6.5216   -2.5897 H   0  0  0  0  0  0  0  0  0  0  0  0
   -4.4354   -6.2934   -0.2356 H   0  0  0  0  0  0  0  0  0  0  0  0
   -3.0329  -10.7029   -2.6439 H   0  0  0  0  0  0  0  0  0  0  0  0
   -3.8870  -10.6045   -1.0982 H   0  0  0  0  0  0  0  0  0  0  0  0
   -0.9306  -10.4600   -1.4880 H   0  0  0  0  0  0  0  0  0  0  0  0
   -1.9033  -11.8299   -0.8320 H   0  0  0  0  0  0  0  0  0  0  0  0
   -1.2664   -8.6883    1.5904 H   0  0  0  0  0  0  0  0  0  0  0  0
   -1.5266   -8.3975   -0.1684 H   0  0  0  0  0  0  0  0  0  0  0  0
    0.9670   -9.5581    0.9489 H   0  0  0  0  0  0  0  0  0  0  0  0
    0.7179   -7.8375    0.6233 H   0  0  0  0  0  0  0  0  0  0  0  0
    0.6828  -12.2787   -2.5915 H   0  0  0  0  0  0  0  0  0  0  0  0
    0.8747  -12.7878   -4.9558 H   0  0  0  0  0  0  0  0  0  0  0  0
    7.8935  -13.5508  -11.3914 H   0  0  0  0  0  0  0  0  0  0  0  0
    6.6495  -13.3854  -13.6764 H   0  0  0  0  0  0  0  0  0  0  0  0
    4.0035  -12.3217  -10.6747 H   0  0  0  0  0  0  0  0  0  0  0  0
   -1.9257  -10.8653   -8.7949 H   0  0  0  0  0  0  0  0  0  0  0  0
   -0.6375  -10.7616   -6.6055 H   0  0  0  0  0  0  0  0  0  0  0  0
    2.0236  -11.8694   -9.6018 H   0  0  0  0  0  0  0  0  0  0  0  0
   -0.5121  -11.4777  -13.9274 H   0  0  0  0  0  0  0  0  0  0  0  0
    1.6192  -12.2615  -15.1071 H   0  0  0  0  0  0  0  0  0  0  0  0
    6.5394  -12.2970   -6.3500 H   0  0  0  0  0  0  0  0  0  0  0  0
    4.3622  -11.7261   -5.1303 H   0  0  0  0  0  0  0  0  0  0  0  0
    2.7134   -9.0488   -5.5942 H   0  0  0  0  0  0  0  0  0  0  0  0
    2.4906   -8.5256   -3.2297 H   0  0  0  0  0  0  0  0  0  0  0  0
   -2.4733   -4.0614   -3.7147 H   0  0  0  0  0  0  0  0  0  0  0  0
  1  2  1  0  0  0  0
  1 93  1  0  0  0  0
  1 94  1  0  0  0  0
  1 95  1  0  0  0  0
  2  3  1  0  0  0  0
  2 96  1  0  0  0  0
  3 97  1  0  0  0  0
  3 98  1  0  0  0  0
  3 99  1  0  0  0  0
  4  9  1  0  0  0  0
  4  5  1  0  0  0  0
  4  2  1  0  0  0  0
  4100  1  1  0  0  0
  5  6  1  0  0  0  0
  5101  1  0  0  0  0
  5102  1  0  0  0  0
  6  7  1  0  0  0  0
  6  8  1  0  0  0  0
  6103  1  0  0  0  0
  7104  1  0  0  0  0
  7105  1  0  0  0  0
  7106  1  0  0  0  0
  8107  1  0  0  0  0
  8108  1  0  0  0  0
  8109  1  0  0  0  0
  9 10  1  0  0  0  0
  9110  1  0  0  0  0
 10 11  2  0  0  0  0
 10 12  1  0  0  0  0
 12 13  2  0  0  0  0
 12 92  1  0  0  0  0
 13 14  1  0  0  0  0
 13111  1  0  0  0  0
 14 15  1  0  0  0  0
 15 16  1  0  0  0  0
 15 92  2  0  0  0  0
 16 17  2  0  0  0  0
 16112  1  0  0  0  0
 17 18  1  0  0  0  0
 17113  1  0  0  0  0
 18 19  2  0  0  0  0
 18 20  1  0  0  0  0
 20 21  1  0  0  0  0
 21 22  1  0  0  0  0
 21114  1  0  0  0  0
 21115  1  0  0  0  0
 22 23  1  0  0  0  0
 22116  1  0  0  0  0
 22117  1  0  0  0  0
 23 24  1  0  0  0  0
 24 25  1  0  0  0  0
 24118  1  0  0  0  0
 24119  1  0  0  0  0
 25 26  1  0  0  0  0
 25120  1  0  0  0  0
 25121  1  0  0  0  0
 26 27  1  0  0  0  0
 27 28  2  0  0  0  0
 27 29  1  0  0  0  0
 29 30  1  0  0  0  0
 29 91  2  0  0  0  0
 30 31  2  0  0  0  0
 30122  1  0  0  0  0
 31 32  1  0  0  0  0
 31123  1  0  0  0  0
 32 33  1  0  0  0  0
 32 90  2  0  0  0  0
 33 34  1  0  0  0  0
 33 84  2  0  0  0  0
 34 35  2  0  0  0  0
 34 89  1  0  0  0  0
 35 36  1  0  0  0  0
 36 37  2  0  0  0  0
 36 88  1  0  0  0  0
 37 38  1  0  0  0  0
 37 49  1  0  0  0  0
 38 39  1  0  0  0  0
 38 47  2  0  0  0  0
 39 40  1  0  0  0  0
 39 41  2  0  0  0  0
 41 42  1  0  0  0  0
 41 43  1  0  0  0  0
 43 44  1  0  0  0  0
 43 45  2  0  0  0  0
 45 46  1  0  0  0  0
 45 47  1  0  0  0  0
 47 48  1  0  0  0  0
 49 50  2  0  0  0  0
 49 53  1  0  0  0  0
 50 51  1  0  0  0  0
 50124  1  0  0  0  0
 51 52  2  0  0  0  0
 51125  1  0  0  0  0
 52 53  1  0  0  0  0
 52 54  1  0  0  0  0
 53126  1  0  0  0  0
 54 55  1  0  0  0  0
 54 66  2  0  0  0  0
 55 56  1  0  0  0  0
 55 64  2  0  0  0  0
 56 57  1  0  0  0  0
 56 58  2  0  0  0  0
 58 59  1  0  0  0  0
 58 60  1  0  0  0  0
 60 61  1  0  0  0  0
 60 62  2  0  0  0  0
 62 63  1  0  0  0  0
 62 64  1  0  0  0  0
 64 65  1  0  0  0  0
 66 67  1  0  0  0  0
 66 87  1  0  0  0  0
 67 68  2  0  0  0  0
 68 69  1  0  0  0  0
 68 86  1  0  0  0  0
 69 70  1  0  0  0  0
 69 81  2  0  0  0  0
 70 71  1  0  0  0  0
 70 79  2  0  0  0  0
 71 72  1  0  0  0  0
 71 73  2  0  0  0  0
 73 74  1  0  0  0  0
 73 75  1  0  0  0  0
 75 76  1  0  0  0  0
 75 77  2  0  0  0  0
 77 78  1  0  0  0  0
 77 79  1  0  0  0  0
 79 80  1  0  0  0  0
 81 82  1  0  0  0  0
 81 85  1  0  0  0  0
 82 83  2  0  0  0  0
 82127  1  0  0  0  0
 83 84  1  0  0  0  0
 83128  1  0  0  0  0
 84 85  1  0  0  0  0
 85129  1  0  0  0  0
 86 87  2  0  0  0  0
 86130  1  0  0  0  0
 87131  1  0  0  0  0
 88 89  2  0  0  0  0
 88132  1  0  0  0  0
 89133  1  0  0  0  0
 90 91  1  0  0  0  0
 90134  1  0  0  0  0
 91135  1  0  0  0  0
 92136  1  0  0  0  0
M  CHG  1   6   1
M  END
$$$$
