0_4_5745
 OpenBabel04152301373D

148160  0  0  1  0  0  0  0  0999 V2000
    2.7288   -0.3454    0.4379 C   0  0  0  0  0  0  0  0  0  0  0  0
    1.3358   -0.0715    0.2265 N   0  0  0  0  0  0  0  0  0  0  0  0
    0.6890    1.1347    0.2339 C   0  0  0  0  0  0  0  0  0  0  0  0
    1.2995    2.6365   -0.3479 S   0  0  0  0  0  0  0  0  0  0  0  0
    2.7456    3.1234    0.5703 C   0  0  0  0  0  0  0  0  0  0  0  0
    2.9021    2.6181    1.9866 C   0  0  0  0  0  0  0  0  0  0  0  0
    3.6606    1.6714    2.2261 O   0  0  0  0  0  0  0  0  0  0  0  0
    2.3869    3.2817    3.0626 N   0  0  0  0  0  0  0  0  0  0  0  0
    1.5638    4.4103    3.1003 C   0  0  0  0  0  0  0  0  0  0  0  0
    1.8678    5.3987    4.0350 C   0  0  0  0  0  0  0  0  0  0  0  0
    1.1750    6.6087    4.0183 C   0  0  0  0  0  0  0  0  0  0  0  0
    0.1759    6.8284    3.0699 C   0  0  0  0  0  0  0  0  0  0  0  0
   -0.1800    5.8142    2.1765 C   0  0  0  0  0  0  0  0  0  0  0  0
   -1.2373    6.0835    1.1702 C   0  0  0  0  0  0  0  0  0  0  0  0
   -1.6581    7.2165    0.9419 O   0  0  0  0  0  0  0  0  0  0  0  0
   -1.6811    4.9360    0.6122 O   0  0  0  0  0  0  0  0  0  0  0  0
   -2.8410    5.0454   -0.2272 C   0  0  0  0  0  0  0  0  0  0  0  0
   -4.0640    4.3705    0.4021 C   0  0  0  0  0  0  0  0  0  0  0  0
   -4.5116    4.8929    1.6536 O   0  0  0  0  0  0  0  0  0  0  0  0
   -3.7725    4.5191    2.8151 C   0  0  0  0  0  0  0  0  0  0  0  0
   -4.0400    3.1282    3.4049 C   0  0  0  0  0  0  0  0  0  0  0  0
   -3.8671    2.0625    2.4587 O   0  0  0  0  0  0  0  0  0  0  0  0
   -5.0212    1.5525    1.9734 C   0  0  0  0  0  0  0  0  0  0  0  0
   -6.1629    1.8600    2.3046 O   0  0  0  0  0  0  0  0  0  0  0  0
   -4.7645    0.6241    0.8595 C   0  0  0  0  0  0  0  0  0  0  0  0
   -5.4794    0.8156   -0.3297 C   0  0  0  0  0  0  0  0  0  0  0  0
   -5.3976   -0.1226   -1.3601 C   0  0  0  0  0  0  0  0  0  0  0  0
   -4.5967   -1.2613   -1.2134 C   0  0  0  0  0  0  0  0  0  0  0  0
   -4.6434   -2.3674   -2.2087 C   0  0  0  0  0  0  0  0  0  0  0  0
   -5.2592   -3.6802   -1.8171 C   0  0  0  0  0  0  0  0  0  0  0  0
   -5.3043   -4.8066   -2.4827 N   0  0  0  0  0  0  0  0  0  0  0  0
   -6.0471   -5.6755   -1.6978 C   0  0  0  0  0  0  0  0  0  0  0  0
   -6.4789   -6.9232   -1.9984 C   0  0  0  0  0  0  0  0  0  0  0  0
   -7.3295   -7.6146   -0.9746 C   0  0  0  0  0  0  0  0  0  0  0  0
   -8.6364   -7.1850   -0.6930 C   0  0  0  0  0  0  0  0  0  0  0  0
   -9.1500   -6.1213   -1.3294 F   0  0  0  0  0  0  0  0  0  0  0  0
   -9.4033   -7.8165    0.2820 C   0  0  0  0  0  0  0  0  0  0  0  0
  -10.6257   -7.3523    0.5760 F   0  0  0  0  0  0  0  0  0  0  0  0
   -8.8954   -8.9116    0.9640 C   0  0  0  0  0  0  0  0  0  0  0  0
   -9.6336   -9.5184    1.9036 F   0  0  0  0  0  0  0  0  0  0  0  0
   -7.6180   -9.3713    0.6801 C   0  0  0  0  0  0  0  0  0  0  0  0
   -7.1303  -10.4364    1.3311 F   0  0  0  0  0  0  0  0  0  0  0  0
   -6.8367   -8.7230   -0.2723 C   0  0  0  0  0  0  0  0  0  0  0  0
   -5.5960   -9.1758   -0.5069 F   0  0  0  0  0  0  0  0  0  0  0  0
   -6.1785   -7.6152   -3.2240 C   0  0  0  0  0  0  0  0  0  0  0  0
   -6.6303   -8.8514   -3.6513 C   0  0  0  0  0  0  0  0  0  0  0  0
   -6.0057   -9.1497   -4.8679 C   0  0  0  0  0  0  0  0  0  0  0  0
   -5.2093   -8.0746   -5.2275 C   0  0  0  0  0  0  0  0  0  0  0  0
   -5.3301   -7.1378   -4.2122 N   0  0  0  0  0  0  0  0  0  0  0  0
   -4.3883   -7.9123   -6.4018 C   0  0  0  0  0  0  0  0  0  0  0  0
   -4.3635   -9.0274   -7.4051 C   0  0  0  0  0  0  0  0  0  0  0  0
   -3.2293   -9.8263   -7.6044 C   0  0  0  0  0  0  0  0  0  0  0  0
   -2.1014   -9.5800   -6.9212 F   0  0  0  0  0  0  0  0  0  0  0  0
   -3.2372  -10.8572   -8.5412 C   0  0  0  0  0  0  0  0  0  0  0  0
   -2.1265  -11.5773   -8.7512 F   0  0  0  0  0  0  0  0  0  0  0  0
   -4.3865  -11.1311   -9.2684 C   0  0  0  0  0  0  0  0  0  0  0  0
   -4.3938  -12.1287  -10.1632 F   0  0  0  0  0  0  0  0  0  0  0  0
   -5.5253  -10.3655   -9.0740 C   0  0  0  0  0  0  0  0  0  0  0  0
   -6.6411  -10.6355   -9.7655 F   0  0  0  0  0  0  0  0  0  0  0  0
   -5.5108   -9.3146   -8.1623 C   0  0  0  0  0  0  0  0  0  0  0  0
   -6.6236   -8.5810   -8.0091 F   0  0  0  0  0  0  0  0  0  0  0  0
   -3.6827   -6.7937   -6.6984 C   0  0  0  0  0  0  0  0  0  0  0  0
   -3.6376   -5.5944   -6.0032 N   0  0  0  0  0  0  0  0  0  0  0  0
   -2.8864   -4.7940   -6.7172 C   0  0  0  0  0  0  0  0  0  0  0  0
   -2.5850   -3.3417   -6.4963 C   0  0  0  0  0  0  0  0  0  0  0  0
   -1.6138   -2.6259   -7.3598 C   0  0  0  0  0  0  0  0  0  0  0  0
   -1.9426   -2.2073   -8.6530 C   0  0  0  0  0  0  0  0  0  0  0  0
   -3.1612   -2.4639   -9.1496 F   0  0  0  0  0  0  0  0  0  0  0  0
   -1.0070   -1.5526   -9.4520 C   0  0  0  0  0  0  0  0  0  0  0  0
   -1.3349   -1.1856  -10.6984 F   0  0  0  0  0  0  0  0  0  0  0  0
    0.2665   -1.2908   -8.9657 C   0  0  0  0  0  0  0  0  0  0  0  0
    1.1628   -0.6608   -9.7376 F   0  0  0  0  0  0  0  0  0  0  0  0
    0.6107   -1.6886   -7.6827 C   0  0  0  0  0  0  0  0  0  0  0  0
    1.8377   -1.4316   -7.2105 F   0  0  0  0  0  0  0  0  0  0  0  0
   -0.3189   -2.3571   -6.8900 C   0  0  0  0  0  0  0  0  0  0  0  0
    0.0347   -2.7494   -5.6586 F   0  0  0  0  0  0  0  0  0  0  0  0
   -3.1774   -2.6906   -5.4779 C   0  0  0  0  0  0  0  0  0  0  0  0
   -3.0576   -1.2632   -5.2087 C   0  0  0  0  0  0  0  0  0  0  0  0
   -3.6258   -0.9958   -4.0205 C   0  0  0  0  0  0  0  0  0  0  0  0
   -4.1483   -2.2306   -3.4525 C   0  0  0  0  0  0  0  0  0  0  0  0
   -3.9530   -3.1613   -4.4461 N   0  0  0  0  0  0  0  0  0  0  0  0
   -2.3062   -5.4189   -7.9133 C   0  0  0  0  0  0  0  0  0  0  0  0
   -2.8513   -6.6274   -7.8730 C   0  0  0  0  0  0  0  0  0  0  0  0
   -6.3545   -4.9782   -0.4671 C   0  0  0  0  0  0  0  0  0  0  0  0
   -5.9358   -3.7227   -0.5121 C   0  0  0  0  0  0  0  0  0  0  0  0
   -3.8320   -1.4085   -0.0390 C   0  0  0  0  0  0  0  0  0  0  0  0
   -3.9214   -0.4758    1.0018 C   0  0  0  0  0  0  0  0  0  0  0  0
    0.4799    4.5848    2.2451 C   0  0  0  0  0  0  0  0  0  0  0  0
   -0.6027    0.9247    0.3625 N   0  0  0  0  0  0  0  0  0  0  0  0
   -0.8180   -0.4224    0.2619 N   0  0  0  0  0  0  0  0  0  0  0  0
    0.3437   -1.0103    0.0546 C   0  0  0  0  0  0  0  0  0  0  0  0
    0.5053   -2.4387   -0.3166 C   0  0  2  0  0  0  0  0  0  0  0  0
    1.0253   -3.2795    0.8547 C   0  0  0  0  0  0  0  0  0  0  0  0
    1.6101   -4.5106    0.1821 C   0  0  0  0  0  0  0  0  0  0  0  0
    2.1027   -4.0105   -1.1669 C   0  0  0  0  0  0  0  0  0  0  0  0
    1.4362   -2.7399   -1.4117 N   0  0  0  0  0  0  0  0  0  0  0  0
    1.6123   -2.1740   -2.6695 C   0  0  0  0  0  0  0  0  0  0  0  0
    2.2461   -2.7447   -3.5575 O   0  0  0  0  0  0  0  0  0  0  0  0
    1.1457   -0.8116   -2.9776 C   0  0  0  0  0  0  0  0  0  0  0  0
   -0.2073   -0.5698   -3.2150 C   0  0  0  0  0  0  0  0  0  0  0  0
   -0.6261    0.7148   -3.5815 C   0  0  0  0  0  0  0  0  0  0  0  0
    0.2928    1.7480   -3.7367 C   0  0  0  0  0  0  0  0  0  0  0  0
    1.6458    1.5012   -3.5281 C   0  0  0  0  0  0  0  0  0  0  0  0
    2.0765    0.2244   -3.1530 C   0  0  0  0  0  0  0  0  0  0  0  0
    3.7693    0.0192   -2.8672 Cl  0  0  0  0  0  0  0  0  0  0  0  0
    3.2624    0.5766    0.5382 H   0  0  0  0  0  0  0  0  0  0  0  0
    3.1154   -0.8923   -0.3966 H   0  0  0  0  0  0  0  0  0  0  0  0
    2.8471   -0.9248    1.3297 H   0  0  0  0  0  0  0  0  0  0  0  0
    2.7475    4.1925    0.6139 H   0  0  0  0  0  0  0  0  0  0  0  0
    3.5582    2.6733    0.0392 H   0  0  0  0  0  0  0  0  0  0  0  0
    2.6312    2.9106    3.9412 H   0  0  0  0  0  0  0  0  0  0  0  0
    2.6048    5.2351    4.7386 H   0  0  0  0  0  0  0  0  0  0  0  0
    1.4015    7.3422    4.7080 H   0  0  0  0  0  0  0  0  0  0  0  0
   -0.3017    7.7423    3.0278 H   0  0  0  0  0  0  0  0  0  0  0  0
   -2.6334    4.5788   -1.1675 H   0  0  0  0  0  0  0  0  0  0  0  0
   -3.0629    6.0844   -0.3543 H   0  0  0  0  0  0  0  0  0  0  0  0
   -3.8250    3.3379    0.5486 H   0  0  0  0  0  0  0  0  0  0  0  0
   -4.8674    4.5506   -0.2813 H   0  0  0  0  0  0  0  0  0  0  0  0
   -3.9880    5.2380    3.5778 H   0  0  0  0  0  0  0  0  0  0  0  0
   -2.7528    4.4879    2.4923 H   0  0  0  0  0  0  0  0  0  0  0  0
   -5.0471    3.1011    3.7654 H   0  0  0  0  0  0  0  0  0  0  0  0
   -3.3252    2.9747    4.1862 H   0  0  0  0  0  0  0  0  0  0  0  0
   -6.0695    1.6544   -0.4447 H   0  0  0  0  0  0  0  0  0  0  0  0
   -5.9291    0.0237   -2.2325 H   0  0  0  0  0  0  0  0  0  0  0  0
   -7.3107   -9.4503   -3.1579 H   0  0  0  0  0  0  0  0  0  0  0  0
   -6.1192  -10.0229   -5.4061 H   0  0  0  0  0  0  0  0  0  0  0  0
   -4.8799   -6.2625   -4.1952 H   0  0  0  0  0  0  0  0  0  0  0  0
   -2.6096   -0.5709   -5.8292 H   0  0  0  0  0  0  0  0  0  0  0  0
   -3.6827   -0.0639   -3.5808 H   0  0  0  0  0  0  0  0  0  0  0  0
   -4.3299   -4.0705   -4.4206 H   0  0  0  0  0  0  0  0  0  0  0  0
   -1.6484   -5.0225   -8.6027 H   0  0  0  0  0  0  0  0  0  0  0  0
   -2.7021   -7.3567   -8.5877 H   0  0  0  0  0  0  0  0  0  0  0  0
   -6.8369   -5.4038    0.3399 H   0  0  0  0  0  0  0  0  0  0  0  0
   -6.0534   -2.9713    0.1855 H   0  0  0  0  0  0  0  0  0  0  0  0
   -3.1964   -2.2160    0.0556 H   0  0  0  0  0  0  0  0  0  0  0  0
   -3.3690   -0.6018    1.8644 H   0  0  0  0  0  0  0  0  0  0  0  0
    0.1609    3.7994    1.6566 H   0  0  0  0  0  0  0  0  0  0  0  0
   -0.4905   -2.6788   -0.6259 H   0  0  0  0  0  0  0  0  0  0  0  0
    0.2277   -3.5482    1.5154 H   0  0  0  0  0  0  0  0  0  0  0  0
    1.7394   -2.7566    1.4559 H   0  0  0  0  0  0  0  0  0  0  0  0
    0.8610   -5.2640    0.0555 H   0  0  0  0  0  0  0  0  0  0  0  0
    2.3918   -4.9572    0.7604 H   0  0  0  0  0  0  0  0  0  0  0  0
    1.8514   -4.7124   -1.9344 H   0  0  0  0  0  0  0  0  0  0  0  0
    3.1663   -3.8934   -1.1686 H   0  0  0  0  0  0  0  0  0  0  0  0
   -0.8954   -1.3331   -3.1211 H   0  0  0  0  0  0  0  0  0  0  0  0
   -1.6295    0.8978   -3.7386 H   0  0  0  0  0  0  0  0  0  0  0  0
   -0.0275    2.6917   -4.0049 H   0  0  0  0  0  0  0  0  0  0  0  0
    2.3329    2.2614   -3.6503 H   0  0  0  0  0  0  0  0  0  0  0  0
  1  2  1  0  0  0  0
  1106  1  0  0  0  0
  1107  1  0  0  0  0
  1108  1  0  0  0  0
  2  3  1  0  0  0  0
  2 91  1  0  0  0  0
  3  4  1  0  0  0  0
  3 89  2  0  0  0  0
  4  5  1  0  0  0  0
  5  6  1  0  0  0  0
  5109  1  0  0  0  0
  5110  1  0  0  0  0
  6  7  2  0  0  0  0
  6  8  1  0  0  0  0
  8  9  1  0  0  0  0
  8111  1  0  0  0  0
  9 10  1  0  0  0  0
  9 88  2  0  0  0  0
 10 11  2  0  0  0  0
 10112  1  0  0  0  0
 11 12  1  0  0  0  0
 11113  1  0  0  0  0
 12 13  2  0  0  0  0
 12114  1  0  0  0  0
 13 14  1  0  0  0  0
 13 88  1  0  0  0  0
 14 15  2  0  0  0  0
 14 16  1  0  0  0  0
 16 17  1  0  0  0  0
 17 18  1  0  0  0  0
 17115  1  0  0  0  0
 17116  1  0  0  0  0
 18 19  1  0  0  0  0
 18117  1  0  0  0  0
 18118  1  0  0  0  0
 19 20  1  0  0  0  0
 20 21  1  0  0  0  0
 20119  1  0  0  0  0
 20120  1  0  0  0  0
 21 22  1  0  0  0  0
 21121  1  0  0  0  0
 21122  1  0  0  0  0
 22 23  1  0  0  0  0
 23 24  2  0  0  0  0
 23 25  1  0  0  0  0
 25 26  1  0  0  0  0
 25 87  2  0  0  0  0
 26 27  2  0  0  0  0
 26123  1  0  0  0  0
 27 28  1  0  0  0  0
 27124  1  0  0  0  0
 28 29  1  0  0  0  0
 28 86  2  0  0  0  0
 29 30  1  0  0  0  0
 29 80  2  0  0  0  0
 30 31  2  0  0  0  0
 30 85  1  0  0  0  0
 31 32  1  0  0  0  0
 32 33  2  0  0  0  0
 32 84  1  0  0  0  0
 33 34  1  0  0  0  0
 33 45  1  0  0  0  0
 34 35  1  0  0  0  0
 34 43  2  0  0  0  0
 35 36  1  0  0  0  0
 35 37  2  0  0  0  0
 37 38  1  0  0  0  0
 37 39  1  0  0  0  0
 39 40  1  0  0  0  0
 39 41  2  0  0  0  0
 41 42  1  0  0  0  0
 41 43  1  0  0  0  0
 43 44  1  0  0  0  0
 45 46  2  0  0  0  0
 45 49  1  0  0  0  0
 46 47  1  0  0  0  0
 46125  1  0  0  0  0
 47 48  2  0  0  0  0
 47126  1  0  0  0  0
 48 49  1  0  0  0  0
 48 50  1  0  0  0  0
 49127  1  0  0  0  0
 50 51  1  0  0  0  0
 50 62  2  0  0  0  0
 51 52  1  0  0  0  0
 51 60  2  0  0  0  0
 52 53  1  0  0  0  0
 52 54  2  0  0  0  0
 54 55  1  0  0  0  0
 54 56  1  0  0  0  0
 56 57  1  0  0  0  0
 56 58  2  0  0  0  0
 58 59  1  0  0  0  0
 58 60  1  0  0  0  0
 60 61  1  0  0  0  0
 62 63  1  0  0  0  0
 62 83  1  0  0  0  0
 63 64  2  0  0  0  0
 64 65  1  0  0  0  0
 64 82  1  0  0  0  0
 65 66  1  0  0  0  0
 65 77  2  0  0  0  0
 66 67  1  0  0  0  0
 66 75  2  0  0  0  0
 67 68  1  0  0  0  0
 67 69  2  0  0  0  0
 69 70  1  0  0  0  0
 69 71  1  0  0  0  0
 71 72  1  0  0  0  0
 71 73  2  0  0  0  0
 73 74  1  0  0  0  0
 73 75  1  0  0  0  0
 75 76  1  0  0  0  0
 77 78  1  0  0  0  0
 77 81  1  0  0  0  0
 78 79  2  0  0  0  0
 78128  1  0  0  0  0
 79 80  1  0  0  0  0
 79129  1  0  0  0  0
 80 81  1  0  0  0  0
 81130  1  0  0  0  0
 82 83  2  0  0  0  0
 82131  1  0  0  0  0
 83132  1  0  0  0  0
 84 85  2  0  0  0  0
 84133  1  0  0  0  0
 85134  1  0  0  0  0
 86 87  1  0  0  0  0
 86135  1  0  0  0  0
 87136  1  0  0  0  0
 88137  1  0  0  0  0
 89 90  1  0  0  0  0
 90 91  2  0  0  0  0
 91 92  1  0  0  0  0
 92 93  1  0  0  0  0
 92 96  1  0  0  0  0
 92138  1  6  0  0  0
 93 94  1  0  0  0  0
 93139  1  0  0  0  0
 93140  1  0  0  0  0
 94 95  1  0  0  0  0
 94141  1  0  0  0  0
 94142  1  0  0  0  0
 95 96  1  0  0  0  0
 95143  1  0  0  0  0
 95144  1  0  0  0  0
 96 97  1  0  0  0  0
 97 98  2  0  0  0  0
 97 99  1  0  0  0  0
 99100  1  0  0  0  0
 99104  2  0  0  0  0
100101  2  0  0  0  0
100145  1  0  0  0  0
101102  1  0  0  0  0
101146  1  0  0  0  0
102103  2  0  0  0  0
102147  1  0  0  0  0
103104  1  0  0  0  0
103148  1  0  0  0  0
104105  1  0  0  0  0
M  END
$$$$
