0_4_1963
 OpenBabel04152301363D

130140  0  0  1  0  0  0  0  0999 V2000
   -0.0136   -0.5526   -0.9400 C   0  0  0  0  0  0  0  0  0  0  0  0
    1.2462    0.0868   -1.5125 C   0  0  0  0  0  0  0  0  0  0  0  0
    1.1437    1.5797   -1.9180 C   0  0  2  0  0  0  0  0  0  0  0  0
    0.2895    2.2927   -0.9700 N   0  0  0  0  0  0  0  0  0  0  0  0
   -1.0899    2.3801   -0.9274 C   0  0  0  0  0  0  0  0  0  0  0  0
   -1.6370    2.4072    0.1743 O   0  0  0  0  0  0  0  0  0  0  0  0
   -1.8299    2.5678   -2.1751 C   0  0  0  0  0  0  0  0  0  0  0  0
   -1.7958    3.7812   -2.7602 N   0  0  0  0  0  0  0  0  0  0  0  0
   -2.4924    3.6303   -3.8891 N   0  0  0  0  0  0  0  0  0  0  0  0
   -2.5983    4.7516   -4.7893 C   0  0  0  0  0  0  0  0  0  0  0  0
   -3.0258    2.3874   -4.0406 C   0  0  0  0  0  0  0  0  0  0  0  0
   -2.6327    1.6565   -2.9312 C   0  0  0  0  0  0  0  0  0  0  0  0
   -2.9559    0.2672   -2.6720 C   0  0  0  0  0  0  0  0  0  0  0  0
   -3.3981   -0.1373   -1.6072 O   0  0  0  0  0  0  0  0  0  0  0  0
   -2.6629   -0.5430   -3.7419 O   0  0  0  0  0  0  0  0  0  0  0  0
   -2.9469   -1.9546   -3.5767 C   0  0  0  0  0  0  0  0  0  0  0  0
   -2.0682   -2.7971   -4.5241 C   0  0  0  0  0  0  0  0  0  0  0  0
   -0.9063   -3.3989   -3.9244 O   0  0  0  0  0  0  0  0  0  0  0  0
    0.1033   -2.4861   -3.5051 C   0  0  0  0  0  0  0  0  0  0  0  0
    1.3154   -2.3255   -4.4309 C   0  0  0  0  0  0  0  0  0  0  0  0
    0.8927   -2.2558   -5.7828 O   0  0  0  0  0  0  0  0  0  0  0  0
    0.8931   -3.4780   -6.3600 C   0  0  0  0  0  0  0  0  0  0  0  0
    1.4473   -4.4916   -5.9893 O   0  0  0  0  0  0  0  0  0  0  0  0
   -0.0967   -3.4431   -7.4329 C   0  0  0  0  0  0  0  0  0  0  0  0
   -1.0256   -4.4876   -7.4545 C   0  0  0  0  0  0  0  0  0  0  0  0
   -1.9026   -4.5867   -8.5161 C   0  0  0  0  0  0  0  0  0  0  0  0
   -1.8233   -3.6436   -9.5464 C   0  0  0  0  0  0  0  0  0  0  0  0
   -2.4287   -3.9705  -10.8434 C   0  0  0  0  0  0  0  0  0  0  0  0
   -1.5287   -4.5254  -11.9049 C   0  0  0  0  0  0  0  0  0  0  0  0
   -1.7854   -4.7916  -13.1560 N   0  0  0  0  0  0  0  0  0  0  0  0
   -0.5872   -5.2459  -13.6912 C   0  0  0  0  0  0  0  0  0  0  0  0
   -0.3502   -5.6782  -14.9506 C   0  0  0  0  0  0  0  0  0  0  0  0
    1.0578   -6.0771  -15.2918 C   0  0  0  0  0  0  0  0  0  0  0  0
    1.6826   -7.1915  -14.7081 C   0  0  0  0  0  0  0  0  0  0  0  0
    1.0205   -7.9500  -13.8211 F   0  0  0  0  0  0  0  0  0  0  0  0
    3.0157   -7.4930  -14.9799 C   0  0  0  0  0  0  0  0  0  0  0  0
    3.6119   -8.5149  -14.3498 F   0  0  0  0  0  0  0  0  0  0  0  0
    3.7356   -6.7194  -15.8770 C   0  0  0  0  0  0  0  0  0  0  0  0
    5.0193   -7.0065  -16.1335 F   0  0  0  0  0  0  0  0  0  0  0  0
    3.1283   -5.6384  -16.4964 C   0  0  0  0  0  0  0  0  0  0  0  0
    3.8180   -4.8956  -17.3732 F   0  0  0  0  0  0  0  0  0  0  0  0
    1.8082   -5.3111  -16.1970 C   0  0  0  0  0  0  0  0  0  0  0  0
    1.2658   -4.2342  -16.7850 F   0  0  0  0  0  0  0  0  0  0  0  0
   -1.3673   -5.7149  -15.9661 C   0  0  0  0  0  0  0  0  0  0  0  0
   -1.2686   -6.1392  -17.2765 C   0  0  0  0  0  0  0  0  0  0  0  0
   -2.5013   -5.9098  -17.8964 C   0  0  0  0  0  0  0  0  0  0  0  0
   -3.3924   -5.4173  -16.9526 C   0  0  0  0  0  0  0  0  0  0  0  0
   -2.6784   -5.2925  -15.7747 N   0  0  0  0  0  0  0  0  0  0  0  0
   -4.7893   -5.0943  -17.1228 C   0  0  0  0  0  0  0  0  0  0  0  0
   -5.3832   -5.3676  -18.4733 C   0  0  0  0  0  0  0  0  0  0  0  0
   -5.7322   -4.3338  -19.3525 C   0  0  0  0  0  0  0  0  0  0  0  0
   -5.6264   -3.0533  -18.9664 F   0  0  0  0  0  0  0  0  0  0  0  0
   -6.2178   -4.6160  -20.6261 C   0  0  0  0  0  0  0  0  0  0  0  0
   -6.5829   -3.6145  -21.4382 F   0  0  0  0  0  0  0  0  0  0  0  0
   -6.3281   -5.9310  -21.0551 C   0  0  0  0  0  0  0  0  0  0  0  0
   -6.7755   -6.1990  -22.2894 F   0  0  0  0  0  0  0  0  0  0  0  0
   -5.9772   -6.9681  -20.2048 C   0  0  0  0  0  0  0  0  0  0  0  0
   -6.0634   -8.2382  -20.6234 F   0  0  0  0  0  0  0  0  0  0  0  0
   -5.5253   -6.6911  -18.9195 C   0  0  0  0  0  0  0  0  0  0  0  0
   -5.1954   -7.7145  -18.1170 F   0  0  0  0  0  0  0  0  0  0  0  0
   -5.6184   -4.6032  -16.1673 C   0  0  0  0  0  0  0  0  0  0  0  0
   -5.3530   -4.3186  -14.8356 N   0  0  0  0  0  0  0  0  0  0  0  0
   -6.4800   -3.8789  -14.3250 C   0  0  0  0  0  0  0  0  0  0  0  0
   -6.7773   -3.4553  -12.9125 C   0  0  0  0  0  0  0  0  0  0  0  0
   -8.1003   -2.9273  -12.4999 C   0  0  0  0  0  0  0  0  0  0  0  0
   -9.2202   -3.7632  -12.4178 C   0  0  0  0  0  0  0  0  0  0  0  0
   -9.1240   -5.0489  -12.7865 F   0  0  0  0  0  0  0  0  0  0  0  0
  -10.4466   -3.2787  -11.9667 C   0  0  0  0  0  0  0  0  0  0  0  0
  -11.5085   -4.0941  -11.9172 F   0  0  0  0  0  0  0  0  0  0  0  0
  -10.5695   -1.9562  -11.5659 C   0  0  0  0  0  0  0  0  0  0  0  0
  -11.7433   -1.4976  -11.1109 F   0  0  0  0  0  0  0  0  0  0  0  0
   -9.4732   -1.1108  -11.6344 C   0  0  0  0  0  0  0  0  0  0  0  0
   -9.5795    0.1610  -11.2260 F   0  0  0  0  0  0  0  0  0  0  0  0
   -8.2546   -1.5870  -12.1113 C   0  0  0  0  0  0  0  0  0  0  0  0
   -7.2082   -0.7490  -12.1578 F   0  0  0  0  0  0  0  0  0  0  0  0
   -5.7972   -3.5551  -11.9977 C   0  0  0  0  0  0  0  0  0  0  0  0
   -5.8934   -3.1896  -10.5865 C   0  0  0  0  0  0  0  0  0  0  0  0
   -4.6777   -3.2981  -10.0272 C   0  0  0  0  0  0  0  0  0  0  0  0
   -3.7398   -3.7830  -11.0372 C   0  0  0  0  0  0  0  0  0  0  0  0
   -4.4991   -3.9614  -12.1580 N   0  0  0  0  0  0  0  0  0  0  0  0
   -7.5851   -3.8012  -15.2856 C   0  0  0  0  0  0  0  0  0  0  0  0
   -7.0167   -4.2824  -16.3835 C   0  0  0  0  0  0  0  0  0  0  0  0
    0.4055   -5.1849  -12.6443 C   0  0  0  0  0  0  0  0  0  0  0  0
   -0.1384   -4.8029  -11.5013 C   0  0  0  0  0  0  0  0  0  0  0  0
   -0.9747   -2.5263   -9.4576 C   0  0  0  0  0  0  0  0  0  0  0  0
   -0.0932   -2.4290   -8.3929 C   0  0  0  0  0  0  0  0  0  0  0  0
    0.9738    1.9935   -3.3753 C   0  0  0  0  0  0  0  0  0  0  0  0
    1.4562    3.2599   -3.7591 C   0  0  0  0  0  0  0  0  0  0  0  0
    1.2477    3.7700   -5.0448 C   0  0  0  0  0  0  0  0  0  0  0  0
    0.5531    3.0219   -5.9878 C   0  0  0  0  0  0  0  0  0  0  0  0
    0.0969    1.7535   -5.6484 C   0  0  0  0  0  0  0  0  0  0  0  0
    0.3155    1.2455   -4.3583 C   0  0  0  0  0  0  0  0  0  0  0  0
    0.1834   -1.5767   -0.7006 H   0  0  0  0  0  0  0  0  0  0  0  0
   -0.8004   -0.5004   -1.6633 H   0  0  0  0  0  0  0  0  0  0  0  0
   -0.3081   -0.0295   -0.0542 H   0  0  0  0  0  0  0  0  0  0  0  0
    1.5246   -0.4680   -2.3840 H   0  0  0  0  0  0  0  0  0  0  0  0
    1.9629    0.0585   -0.7185 H   0  0  0  0  0  0  0  0  0  0  0  0
    2.1593    1.9082   -1.8440 H   0  0  0  0  0  0  0  0  0  0  0  0
    0.7647    2.7811   -0.2594 H   0  0  0  0  0  0  0  0  0  0  0  0
   -2.0673    5.5868   -4.3827 H   0  0  0  0  0  0  0  0  0  0  0  0
   -3.6286    5.0113   -4.9159 H   0  0  0  0  0  0  0  0  0  0  0  0
   -2.1777    4.4888   -5.7374 H   0  0  0  0  0  0  0  0  0  0  0  0
   -3.6074    2.0554   -4.8258 H   0  0  0  0  0  0  0  0  0  0  0  0
   -3.9778   -2.1348   -3.7994 H   0  0  0  0  0  0  0  0  0  0  0  0
   -2.7333   -2.2346   -2.5663 H   0  0  0  0  0  0  0  0  0  0  0  0
   -1.7367   -2.1611   -5.3181 H   0  0  0  0  0  0  0  0  0  0  0  0
   -2.6839   -3.6097   -4.8489 H   0  0  0  0  0  0  0  0  0  0  0  0
    0.4639   -2.8165   -2.5534 H   0  0  0  0  0  0  0  0  0  0  0  0
   -0.3715   -1.5273   -3.4953 H   0  0  0  0  0  0  0  0  0  0  0  0
    1.9682   -3.1643   -4.3074 H   0  0  0  0  0  0  0  0  0  0  0  0
    1.8302   -1.4220   -4.1788 H   0  0  0  0  0  0  0  0  0  0  0  0
   -1.0554   -5.1761   -6.6863 H   0  0  0  0  0  0  0  0  0  0  0  0
   -2.6041   -5.3429   -8.5491 H   0  0  0  0  0  0  0  0  0  0  0  0
   -0.4333   -6.5524  -17.7199 H   0  0  0  0  0  0  0  0  0  0  0  0
   -2.7136   -6.0789  -18.8921 H   0  0  0  0  0  0  0  0  0  0  0  0
   -3.0445   -4.9544  -14.9256 H   0  0  0  0  0  0  0  0  0  0  0  0
   -6.7546   -2.8961  -10.0994 H   0  0  0  0  0  0  0  0  0  0  0  0
   -4.4444   -3.0759   -9.0468 H   0  0  0  0  0  0  0  0  0  0  0  0
   -4.1493   -4.3430  -12.9954 H   0  0  0  0  0  0  0  0  0  0  0  0
   -8.5496   -3.4620  -15.1449 H   0  0  0  0  0  0  0  0  0  0  0  0
   -7.5088   -4.4126  -17.2812 H   0  0  0  0  0  0  0  0  0  0  0  0
    1.4048   -5.4092  -12.7711 H   0  0  0  0  0  0  0  0  0  0  0  0
    0.2970   -4.7205  -10.5693 H   0  0  0  0  0  0  0  0  0  0  0  0
   -1.0079   -1.7871  -10.1770 H   0  0  0  0  0  0  0  0  0  0  0  0
    0.5504   -1.6264   -8.3114 H   0  0  0  0  0  0  0  0  0  0  0  0
    1.9779    3.8272   -3.0728 H   0  0  0  0  0  0  0  0  0  0  0  0
    1.6104    4.7036   -5.2936 H   0  0  0  0  0  0  0  0  0  0  0  0
    0.3778    3.4041   -6.9303 H   0  0  0  0  0  0  0  0  0  0  0  0
   -0.4043    1.1833   -6.3474 H   0  0  0  0  0  0  0  0  0  0  0  0
   -0.0177    0.2961   -4.1287 H   0  0  0  0  0  0  0  0  0  0  0  0
  1  2  1  0  0  0  0
  1 93  1  0  0  0  0
  1 94  1  0  0  0  0
  1 95  1  0  0  0  0
  2 96  1  0  0  0  0
  2 97  1  0  0  0  0
  3 87  1  0  0  0  0
  3  4  1  0  0  0  0
  3  2  1  0  0  0  0
  3 98  1  1  0  0  0
  4  5  1  0  0  0  0
  4 99  1  0  0  0  0
  5  6  2  0  0  0  0
  5  7  1  0  0  0  0
  7  8  2  0  0  0  0
  7 12  1  0  0  0  0
  8  9  1  0  0  0  0
  9 10  1  0  0  0  0
  9 11  1  0  0  0  0
 10100  1  0  0  0  0
 10101  1  0  0  0  0
 10102  1  0  0  0  0
 11 12  2  0  0  0  0
 11103  1  0  0  0  0
 12 13  1  0  0  0  0
 13 14  2  0  0  0  0
 13 15  1  0  0  0  0
 15 16  1  0  0  0  0
 16 17  1  0  0  0  0
 16104  1  0  0  0  0
 16105  1  0  0  0  0
 17 18  1  0  0  0  0
 17106  1  0  0  0  0
 17107  1  0  0  0  0
 18 19  1  0  0  0  0
 19 20  1  0  0  0  0
 19108  1  0  0  0  0
 19109  1  0  0  0  0
 20 21  1  0  0  0  0
 20110  1  0  0  0  0
 20111  1  0  0  0  0
 21 22  1  0  0  0  0
 22 23  2  0  0  0  0
 22 24  1  0  0  0  0
 24 25  1  0  0  0  0
 24 86  2  0  0  0  0
 25 26  2  0  0  0  0
 25112  1  0  0  0  0
 26 27  1  0  0  0  0
 26113  1  0  0  0  0
 27 28  1  0  0  0  0
 27 85  2  0  0  0  0
 28 29  1  0  0  0  0
 28 79  2  0  0  0  0
 29 30  2  0  0  0  0
 29 84  1  0  0  0  0
 30 31  1  0  0  0  0
 31 32  2  0  0  0  0
 31 83  1  0  0  0  0
 32 33  1  0  0  0  0
 32 44  1  0  0  0  0
 33 34  1  0  0  0  0
 33 42  2  0  0  0  0
 34 35  1  0  0  0  0
 34 36  2  0  0  0  0
 36 37  1  0  0  0  0
 36 38  1  0  0  0  0
 38 39  1  0  0  0  0
 38 40  2  0  0  0  0
 40 41  1  0  0  0  0
 40 42  1  0  0  0  0
 42 43  1  0  0  0  0
 44 45  2  0  0  0  0
 44 48  1  0  0  0  0
 45 46  1  0  0  0  0
 45114  1  0  0  0  0
 46 47  2  0  0  0  0
 46115  1  0  0  0  0
 47 48  1  0  0  0  0
 47 49  1  0  0  0  0
 48116  1  0  0  0  0
 49 50  1  0  0  0  0
 49 61  2  0  0  0  0
 50 51  1  0  0  0  0
 50 59  2  0  0  0  0
 51 52  1  0  0  0  0
 51 53  2  0  0  0  0
 53 54  1  0  0  0  0
 53 55  1  0  0  0  0
 55 56  1  0  0  0  0
 55 57  2  0  0  0  0
 57 58  1  0  0  0  0
 57 59  1  0  0  0  0
 59 60  1  0  0  0  0
 61 62  1  0  0  0  0
 61 82  1  0  0  0  0
 62 63  2  0  0  0  0
 63 64  1  0  0  0  0
 63 81  1  0  0  0  0
 64 65  1  0  0  0  0
 64 76  2  0  0  0  0
 65 66  1  0  0  0  0
 65 74  2  0  0  0  0
 66 67  1  0  0  0  0
 66 68  2  0  0  0  0
 68 69  1  0  0  0  0
 68 70  1  0  0  0  0
 70 71  1  0  0  0  0
 70 72  2  0  0  0  0
 72 73  1  0  0  0  0
 72 74  1  0  0  0  0
 74 75  1  0  0  0  0
 76 77  1  0  0  0  0
 76 80  1  0  0  0  0
 77 78  2  0  0  0  0
 77117  1  0  0  0  0
 78 79  1  0  0  0  0
 78118  1  0  0  0  0
 79 80  1  0  0  0  0
 80119  1  0  0  0  0
 81 82  2  0  0  0  0
 81120  1  0  0  0  0
 82121  1  0  0  0  0
 83 84  2  0  0  0  0
 83122  1  0  0  0  0
 84123  1  0  0  0  0
 85 86  1  0  0  0  0
 85124  1  0  0  0  0
 86125  1  0  0  0  0
 87 88  1  0  0  0  0
 87 92  2  0  0  0  0
 88 89  2  0  0  0  0
 88126  1  0  0  0  0
 89 90  1  0  0  0  0
 89127  1  0  0  0  0
 90 91  2  0  0  0  0
 90128  1  0  0  0  0
 91 92  1  0  0  0  0
 91129  1  0  0  0  0
 92130  1  0  0  0  0
M  END
$$$$
