0_5_6010
 OpenBabel04152301373D

141150  0  0  1  0  0  0  0  0999 V2000
   -0.3770   -2.5537    0.2381 C   0  0  0  0  0  0  0  0  0  0  0  0
   -0.0947   -2.9311   -1.2134 C   0  0  0  0  0  0  0  0  0  0  0  0
    0.7965   -1.9580   -2.0468 C   0  0  2  0  0  0  0  0  0  0  0  0
    0.1282   -0.5902   -2.2194 C   0  0  0  0  0  0  0  0  0  0  0  0
    1.0336   -2.6431   -3.3525 N   0  0  0  0  0  0  0  0  0  0  0  0
    1.4657   -2.1311   -4.5602 C   0  0  0  0  0  0  0  0  0  0  0  0
    1.0388   -1.0733   -4.9987 O   0  0  0  0  0  0  0  0  0  0  0  0
    2.4048   -2.9641   -5.1822 N   0  0  0  0  0  0  0  0  0  0  0  0
    3.2333   -3.8238   -4.3259 C   0  0  0  0  0  0  0  0  0  0  0  0
    2.9140   -2.8599   -6.5845 C   0  0  1  0  0  0  0  0  0  0  0  0
    2.6931   -4.2372   -7.2629 C   0  0  0  0  0  0  0  0  0  0  0  0
    2.5735   -1.7063   -7.5374 C   0  0  0  0  0  0  0  0  0  0  0  0
    2.1756   -1.9410   -8.8753 C   0  0  0  0  0  0  0  0  0  0  0  0
    2.1686   -0.9289   -9.8445 C   0  0  0  0  0  0  0  0  0  0  0  0
    2.5222    0.3658   -9.4991 C   0  0  0  0  0  0  0  0  0  0  0  0
    2.8632    0.6416   -8.1813 C   0  0  0  0  0  0  0  0  0  0  0  0
    2.9008   -0.3824   -7.2277 C   0  0  0  0  0  0  0  0  0  0  0  0
    3.3369   -0.0641   -6.0066 F   0  0  0  0  0  0  0  0  0  0  0  0
    2.0993   -1.7557   -1.2089 C   0  0  0  0  0  0  0  0  0  0  0  0
    2.1824   -0.9745   -0.2663 O   0  0  0  0  0  0  0  0  0  0  0  0
    3.0822   -2.6385   -1.5386 O   0  0  0  0  0  0  0  0  0  0  0  0
    4.2598   -2.6614   -0.7029 C   0  0  0  0  0  0  0  0  0  0  0  0
    5.4849   -2.0574   -1.3925 C   0  0  0  0  0  0  0  0  0  0  0  0
    5.6448   -0.6500   -1.2495 O   0  0  0  0  0  0  0  0  0  0  0  0
    4.7738    0.2184   -1.9697 C   0  0  0  0  0  0  0  0  0  0  0  0
    4.3332   -0.2206   -3.3677 C   0  0  0  0  0  0  0  0  0  0  0  0
    5.3520   -0.7840   -4.1952 O   0  0  0  0  0  0  0  0  0  0  0  0
    6.4754    0.0502   -4.4654 C   0  0  0  0  0  0  0  0  0  0  0  0
    6.1641    1.1803   -5.4410 C   0  0  0  0  0  0  0  0  0  0  0  0
    5.3053    2.1330   -4.8017 O   0  0  0  0  0  0  0  0  0  0  0  0
    4.6677    2.9572   -5.6525 C   0  0  0  0  0  0  0  0  0  0  0  0
    4.8688    3.1092   -6.8501 O   0  0  0  0  0  0  0  0  0  0  0  0
    3.6766    3.7157   -4.8897 C   0  0  0  0  0  0  0  0  0  0  0  0
    2.3979    3.1925   -4.6550 C   0  0  0  0  0  0  0  0  0  0  0  0
    1.4453    3.9787   -4.0013 C   0  0  0  0  0  0  0  0  0  0  0  0
    1.7811    5.2770   -3.5932 C   0  0  0  0  0  0  0  0  0  0  0  0
    0.7953    6.2104   -3.0079 C   0  0  0  0  0  0  0  0  0  0  0  0
    0.2145    7.2809   -3.8817 C   0  0  0  0  0  0  0  0  0  0  0  0
   -0.3935    8.3880   -3.5460 N   0  0  0  0  0  0  0  0  0  0  0  0
   -0.6806    9.0344   -4.7409 C   0  0  0  0  0  0  0  0  0  0  0  0
   -1.3035   10.2231   -4.9168 C   0  0  0  0  0  0  0  0  0  0  0  0
   -1.4855   10.7199   -6.3199 C   0  0  0  0  0  0  0  0  0  0  0  0
   -0.7478   11.8167   -6.7907 C   0  0  0  0  0  0  0  0  0  0  0  0
    0.1721   12.3996   -6.0074 F   0  0  0  0  0  0  0  0  0  0  0  0
   -0.9645   12.3325   -8.0662 C   0  0  0  0  0  0  0  0  0  0  0  0
   -0.2669   13.3978   -8.4849 F   0  0  0  0  0  0  0  0  0  0  0  0
   -1.9056   11.7503   -8.9018 C   0  0  0  0  0  0  0  0  0  0  0  0
   -2.1097   12.2445  -10.1308 F   0  0  0  0  0  0  0  0  0  0  0  0
   -2.6340   10.6546   -8.4633 C   0  0  0  0  0  0  0  0  0  0  0  0
   -3.5300   10.0788   -9.2770 F   0  0  0  0  0  0  0  0  0  0  0  0
   -2.4351   10.1498   -7.1803 C   0  0  0  0  0  0  0  0  0  0  0  0
   -3.1563    9.0911   -6.7826 F   0  0  0  0  0  0  0  0  0  0  0  0
   -1.7872   11.0395   -3.8346 C   0  0  0  0  0  0  0  0  0  0  0  0
   -2.4339   12.2608   -3.8922 C   0  0  0  0  0  0  0  0  0  0  0  0
   -2.6851   12.6821   -2.5820 C   0  0  0  0  0  0  0  0  0  0  0  0
   -2.2308   11.7047   -1.7099 C   0  0  0  0  0  0  0  0  0  0  0  0
   -1.6729   10.7078   -2.4915 N   0  0  0  0  0  0  0  0  0  0  0  0
   -2.3017   11.6857   -0.2716 C   0  0  0  0  0  0  0  0  0  0  0  0
   -2.9368   12.8644    0.4001 C   0  0  0  0  0  0  0  0  0  0  0  0
   -4.3255   13.0514    0.3420 C   0  0  0  0  0  0  0  0  0  0  0  0
   -5.1034   12.1532   -0.2805 F   0  0  0  0  0  0  0  0  0  0  0  0
   -4.9184   14.1730    0.9126 C   0  0  0  0  0  0  0  0  0  0  0  0
   -6.2450   14.3438    0.8287 F   0  0  0  0  0  0  0  0  0  0  0  0
   -4.1380   15.1149    1.5666 C   0  0  0  0  0  0  0  0  0  0  0  0
   -4.7121   16.1873    2.1288 F   0  0  0  0  0  0  0  0  0  0  0  0
   -2.7634   14.9429    1.6436 C   0  0  0  0  0  0  0  0  0  0  0  0
   -2.0117   15.8414    2.2944 F   0  0  0  0  0  0  0  0  0  0  0  0
   -2.1642   13.8337    1.0545 C   0  0  0  0  0  0  0  0  0  0  0  0
   -0.8337   13.6885    1.1448 F   0  0  0  0  0  0  0  0  0  0  0  0
   -1.8589   10.6853    0.5290 C   0  0  0  0  0  0  0  0  0  0  0  0
   -1.2477    9.4900    0.1801 N   0  0  0  0  0  0  0  0  0  0  0  0
   -0.9926    8.8705    1.3079 C   0  0  0  0  0  0  0  0  0  0  0  0
   -0.3364    7.5344    1.5267 C   0  0  0  0  0  0  0  0  0  0  0  0
   -0.0704    7.0162    2.8925 C   0  0  0  0  0  0  0  0  0  0  0  0
    1.2326    6.9356    3.4066 C   0  0  0  0  0  0  0  0  0  0  0  0
    2.2712    7.3676    2.6763 F   0  0  0  0  0  0  0  0  0  0  0  0
    1.4771    6.3895    4.6654 C   0  0  0  0  0  0  0  0  0  0  0  0
    2.7338    6.2945    5.1209 F   0  0  0  0  0  0  0  0  0  0  0  0
    0.4224    5.9385    5.4446 C   0  0  0  0  0  0  0  0  0  0  0  0
    0.6562    5.4204    6.6581 F   0  0  0  0  0  0  0  0  0  0  0  0
   -0.8760    6.0293    4.9657 C   0  0  0  0  0  0  0  0  0  0  0  0
   -1.9003    5.6177    5.7253 F   0  0  0  0  0  0  0  0  0  0  0  0
   -1.1191    6.5535    3.6978 C   0  0  0  0  0  0  0  0  0  0  0  0
   -2.3840    6.6348    3.2598 F   0  0  0  0  0  0  0  0  0  0  0  0
    0.0256    6.8041    0.4550 C   0  0  0  0  0  0  0  0  0  0  0  0
    0.7260    5.5226    0.4924 C   0  0  0  0  0  0  0  0  0  0  0  0
    1.0668    5.1754   -0.7597 C   0  0  0  0  0  0  0  0  0  0  0  0
    0.5642    6.1890   -1.6848 C   0  0  0  0  0  0  0  0  0  0  0  0
   -0.1052    7.0789   -0.8842 N   0  0  0  0  0  0  0  0  0  0  0  0
   -1.4046    9.6127    2.5068 C   0  0  0  0  0  0  0  0  0  0  0  0
   -1.9517   10.6979    1.9754 C   0  0  0  0  0  0  0  0  0  0  0  0
   -0.1765    8.2008   -5.8107 C   0  0  0  0  0  0  0  0  0  0  0  0
    0.3621    7.0871   -5.3334 C   0  0  0  0  0  0  0  0  0  0  0  0
    3.0818    5.7684   -3.8025 C   0  0  0  0  0  0  0  0  0  0  0  0
    4.0284    4.9932   -4.4588 C   0  0  0  0  0  0  0  0  0  0  0  0
   -0.9950   -3.3026    0.6876 H   0  0  0  0  0  0  0  0  0  0  0  0
   -0.8801   -1.6099    0.2699 H   0  0  0  0  0  0  0  0  0  0  0  0
    0.5462   -2.4840    0.7745 H   0  0  0  0  0  0  0  0  0  0  0  0
   -1.0372   -3.0114   -1.7135 H   0  0  0  0  0  0  0  0  0  0  0  0
    0.4695   -3.8385   -1.1561 H   0  0  0  0  0  0  0  0  0  0  0  0
    0.7661    0.0485   -2.7939 H   0  0  0  0  0  0  0  0  0  0  0  0
   -0.0422   -0.1526   -1.2579 H   0  0  0  0  0  0  0  0  0  0  0  0
   -0.8060   -0.7112   -2.7269 H   0  0  0  0  0  0  0  0  0  0  0  0
    0.8538   -3.6110   -3.3523 H   0  0  0  0  0  0  0  0  0  0  0  0
    2.8157   -3.8550   -3.3412 H   0  0  0  0  0  0  0  0  0  0  0  0
    4.2270   -3.4296   -4.2796 H   0  0  0  0  0  0  0  0  0  0  0  0
    3.2606   -4.8128   -4.7333 H   0  0  0  0  0  0  0  0  0  0  0  0
    3.9275   -2.5639   -6.4110 H   0  0  0  0  0  0  0  0  0  0  0  0
    1.6441   -4.4134   -7.3790 H   0  0  0  0  0  0  0  0  0  0  0  0
    3.1189   -5.0071   -6.6539 H   0  0  0  0  0  0  0  0  0  0  0  0
    3.1639   -4.2411   -8.2237 H   0  0  0  0  0  0  0  0  0  0  0  0
    1.8800   -2.8917   -9.1468 H   0  0  0  0  0  0  0  0  0  0  0  0
    1.8998   -1.1479  -10.8165 H   0  0  0  0  0  0  0  0  0  0  0  0
    2.5320    1.1136  -10.2102 H   0  0  0  0  0  0  0  0  0  0  0  0
    3.0906    1.6090   -7.9030 H   0  0  0  0  0  0  0  0  0  0  0  0
    4.4776   -3.6770   -0.4460 H   0  0  0  0  0  0  0  0  0  0  0  0
    4.0524   -2.0697    0.1642 H   0  0  0  0  0  0  0  0  0  0  0  0
    5.4142   -2.2753   -2.4377 H   0  0  0  0  0  0  0  0  0  0  0  0
    6.3346   -2.4968   -0.9131 H   0  0  0  0  0  0  0  0  0  0  0  0
    5.2727    1.1594   -2.0720 H   0  0  0  0  0  0  0  0  0  0  0  0
    3.8721    0.2375   -1.3940 H   0  0  0  0  0  0  0  0  0  0  0  0
    3.9389    0.6371   -3.8715 H   0  0  0  0  0  0  0  0  0  0  0  0
    3.6198   -1.0031   -3.2138 H   0  0  0  0  0  0  0  0  0  0  0  0
    7.2548   -0.5533   -4.8817 H   0  0  0  0  0  0  0  0  0  0  0  0
    6.7667    0.5007   -3.5396 H   0  0  0  0  0  0  0  0  0  0  0  0
    5.6755    0.7820   -6.3056 H   0  0  0  0  0  0  0  0  0  0  0  0
    7.0738    1.6593   -5.7376 H   0  0  0  0  0  0  0  0  0  0  0  0
    2.1620    2.2359   -4.9619 H   0  0  0  0  0  0  0  0  0  0  0  0
    0.5003    3.6057   -3.8201 H   0  0  0  0  0  0  0  0  0  0  0  0
   -2.6871   12.7723   -4.7520 H   0  0  0  0  0  0  0  0  0  0  0  0
   -3.1333   13.5711   -2.3103 H   0  0  0  0  0  0  0  0  0  0  0  0
   -1.2566    9.8852   -2.1460 H   0  0  0  0  0  0  0  0  0  0  0  0
    0.9264    4.9732    1.3427 H   0  0  0  0  0  0  0  0  0  0  0  0
    1.5970    4.3307   -1.0251 H   0  0  0  0  0  0  0  0  0  0  0  0
   -0.6264    7.8374   -1.2339 H   0  0  0  0  0  0  0  0  0  0  0  0
   -1.2968    9.3571    3.5008 H   0  0  0  0  0  0  0  0  0  0  0  0
   -2.3885   11.4558    2.5229 H   0  0  0  0  0  0  0  0  0  0  0  0
   -0.2292    8.4413   -6.8129 H   0  0  0  0  0  0  0  0  0  0  0  0
    0.7763    6.2926   -5.8455 H   0  0  0  0  0  0  0  0  0  0  0  0
    3.3343    6.7109   -3.4663 H   0  0  0  0  0  0  0  0  0  0  0  0
    4.9793    5.3581   -4.6252 H   0  0  0  0  0  0  0  0  0  0  0  0
  1  2  1  0  0  0  0
  1 96  1  0  0  0  0
  1 97  1  0  0  0  0
  1 98  1  0  0  0  0
  2 99  1  0  0  0  0
  2100  1  0  0  0  0
  3  5  1  0  0  0  0
  3 19  1  1  0  0  0
  3  4  1  0  0  0  0
  3  2  1  0  0  0  0
  4101  1  0  0  0  0
  4102  1  0  0  0  0
  4103  1  0  0  0  0
  5  6  1  0  0  0  0
  5104  1  0  0  0  0
  6  7  2  0  0  0  0
  6  8  1  0  0  0  0
  8  9  1  0  0  0  0
  8 10  1  0  0  0  0
  9105  1  0  0  0  0
  9106  1  0  0  0  0
  9107  1  0  0  0  0
 10 11  1  0  0  0  0
 10 12  1  0  0  0  0
 10108  1  1  0  0  0
 11109  1  0  0  0  0
 11110  1  0  0  0  0
 11111  1  0  0  0  0
 12 13  1  0  0  0  0
 12 17  2  0  0  0  0
 13 14  2  0  0  0  0
 13112  1  0  0  0  0
 14 15  1  0  0  0  0
 14113  1  0  0  0  0
 15 16  2  0  0  0  0
 15114  1  0  0  0  0
 16 17  1  0  0  0  0
 16115  1  0  0  0  0
 17 18  1  0  0  0  0
 19 20  2  0  0  0  0
 19 21  1  0  0  0  0
 21 22  1  0  0  0  0
 22 23  1  0  0  0  0
 22116  1  0  0  0  0
 22117  1  0  0  0  0
 23 24  1  0  0  0  0
 23118  1  0  0  0  0
 23119  1  0  0  0  0
 24 25  1  0  0  0  0
 25 26  1  0  0  0  0
 25120  1  0  0  0  0
 25121  1  0  0  0  0
 26 27  1  0  0  0  0
 26122  1  0  0  0  0
 26123  1  0  0  0  0
 27 28  1  0  0  0  0
 28 29  1  0  0  0  0
 28124  1  0  0  0  0
 28125  1  0  0  0  0
 29 30  1  0  0  0  0
 29126  1  0  0  0  0
 29127  1  0  0  0  0
 30 31  1  0  0  0  0
 31 32  2  0  0  0  0
 31 33  1  0  0  0  0
 33 34  1  0  0  0  0
 33 95  2  0  0  0  0
 34 35  2  0  0  0  0
 34128  1  0  0  0  0
 35 36  1  0  0  0  0
 35129  1  0  0  0  0
 36 37  1  0  0  0  0
 36 94  2  0  0  0  0
 37 38  1  0  0  0  0
 37 88  2  0  0  0  0
 38 39  2  0  0  0  0
 38 93  1  0  0  0  0
 39 40  1  0  0  0  0
 40 41  2  0  0  0  0
 40 92  1  0  0  0  0
 41 42  1  0  0  0  0
 41 53  1  0  0  0  0
 42 43  1  0  0  0  0
 42 51  2  0  0  0  0
 43 44  1  0  0  0  0
 43 45  2  0  0  0  0
 45 46  1  0  0  0  0
 45 47  1  0  0  0  0
 47 48  1  0  0  0  0
 47 49  2  0  0  0  0
 49 50  1  0  0  0  0
 49 51  1  0  0  0  0
 51 52  1  0  0  0  0
 53 54  2  0  0  0  0
 53 57  1  0  0  0  0
 54 55  1  0  0  0  0
 54130  1  0  0  0  0
 55 56  2  0  0  0  0
 55131  1  0  0  0  0
 56 57  1  0  0  0  0
 56 58  1  0  0  0  0
 57132  1  0  0  0  0
 58 59  1  0  0  0  0
 58 70  2  0  0  0  0
 59 60  1  0  0  0  0
 59 68  2  0  0  0  0
 60 61  1  0  0  0  0
 60 62  2  0  0  0  0
 62 63  1  0  0  0  0
 62 64  1  0  0  0  0
 64 65  1  0  0  0  0
 64 66  2  0  0  0  0
 66 67  1  0  0  0  0
 66 68  1  0  0  0  0
 68 69  1  0  0  0  0
 70 71  1  0  0  0  0
 70 91  1  0  0  0  0
 71 72  2  0  0  0  0
 72 73  1  0  0  0  0
 72 90  1  0  0  0  0
 73 74  1  0  0  0  0
 73 85  2  0  0  0  0
 74 75  1  0  0  0  0
 74 83  2  0  0  0  0
 75 76  1  0  0  0  0
 75 77  2  0  0  0  0
 77 78  1  0  0  0  0
 77 79  1  0  0  0  0
 79 80  1  0  0  0  0
 79 81  2  0  0  0  0
 81 82  1  0  0  0  0
 81 83  1  0  0  0  0
 83 84  1  0  0  0  0
 85 86  1  0  0  0  0
 85 89  1  0  0  0  0
 86 87  2  0  0  0  0
 86133  1  0  0  0  0
 87 88  1  0  0  0  0
 87134  1  0  0  0  0
 88 89  1  0  0  0  0
 89135  1  0  0  0  0
 90 91  2  0  0  0  0
 90136  1  0  0  0  0
 91137  1  0  0  0  0
 92 93  2  0  0  0  0
 92138  1  0  0  0  0
 93139  1  0  0  0  0
 94 95  1  0  0  0  0
 94140  1  0  0  0  0
 95141  1  0  0  0  0
M  END
$$$$
