0_5_7479
 OpenBabel04152301373D

137146  0  0  1  0  0  0  0  0999 V2000
    1.3080    2.6085    0.0193 C   0  0  0  0  0  0  0  0  0  0  0  0
    0.5344    1.3859    0.5417 C   0  0  2  0  0  0  0  0  0  0  0  0
    1.1391    0.0262    0.1130 C   0  0  0  0  0  0  0  0  0  0  0  0
    1.6948   -0.0167   -1.2416 C   0  0  0  0  0  0  0  0  0  0  0  0
    2.1580   -0.0687   -2.3078 N   0  0  0  0  0  0  0  0  0  0  0  0
   -0.9425    1.4330    0.4444 N   0  3  1  0  0  0  0  0  0  0  0  0
   -1.5421    2.4380    1.3189 C   0  0  0  0  0  0  0  0  0  0  0  0
   -1.5841    1.3246   -0.8750 C   0  0  0  0  0  0  0  0  0  0  0  0
   -1.2880    2.4293   -1.8620 C   0  0  0  0  0  0  0  0  0  0  0  0
   -1.8021    3.7173   -1.6838 C   0  0  0  0  0  0  0  0  0  0  0  0
   -1.3738    4.7494   -2.5058 C   0  0  0  0  0  0  0  0  0  0  0  0
   -1.8336    5.9898   -2.2944 F   0  0  0  0  0  0  0  0  0  0  0  0
   -0.4386    4.5306   -3.5124 C   0  0  0  0  0  0  0  0  0  0  0  0
    0.0729    3.2463   -3.7318 C   0  0  0  0  0  0  0  0  0  0  0  0
    1.1243    2.9541   -4.7258 C   0  0  0  0  0  0  0  0  0  0  0  0
    2.0126    3.8685   -5.1466 C   0  0  0  0  0  0  0  0  0  0  0  0
    3.0750    3.6614   -6.1546 C   0  0  0  0  0  0  0  0  0  0  0  0
    4.0398    4.4103   -6.2108 O   0  0  0  0  0  0  0  0  0  0  0  0
    2.7344    2.7232   -7.0707 O   0  0  0  0  0  0  0  0  0  0  0  0
    3.5754    2.6595   -8.2291 C   0  0  0  0  0  0  0  0  0  0  0  0
    2.9786    3.1491   -9.5663 C   0  0  0  0  0  0  0  0  0  0  0  0
    1.9863    4.1555   -9.6926 O   0  0  0  0  0  0  0  0  0  0  0  0
    1.0958    4.4269   -8.6314 C   0  0  0  0  0  0  0  0  0  0  0  0
    0.1008    3.3391   -8.1840 C   0  0  0  0  0  0  0  0  0  0  0  0
    0.3714    2.0168   -8.5762 O   0  0  0  0  0  0  0  0  0  0  0  0
    0.0092    1.5699   -9.8718 C   0  0  0  0  0  0  0  0  0  0  0  0
   -0.7128    2.3996  -10.9586 C   0  0  0  0  0  0  0  0  0  0  0  0
   -0.8858    3.8064  -10.7587 O   0  0  0  0  0  0  0  0  0  0  0  0
   -2.1212    4.1999  -10.3627 C   0  0  0  0  0  0  0  0  0  0  0  0
   -3.0849    3.4933  -10.1275 O   0  0  0  0  0  0  0  0  0  0  0  0
   -2.0943    5.6480  -10.0804 C   0  0  0  0  0  0  0  0  0  0  0  0
   -2.1544    6.0870   -8.7499 C   0  0  0  0  0  0  0  0  0  0  0  0
   -2.1943    7.4512   -8.4637 C   0  0  0  0  0  0  0  0  0  0  0  0
   -2.2199    8.3822   -9.5094 C   0  0  0  0  0  0  0  0  0  0  0  0
   -2.4763    9.8154   -9.2243 C   0  0  0  0  0  0  0  0  0  0  0  0
   -3.8461   10.3759   -9.4857 C   0  0  0  0  0  0  0  0  0  0  0  0
   -4.2718   11.6094   -9.3875 N   0  0  0  0  0  0  0  0  0  0  0  0
   -5.6098   11.5766   -9.7570 C   0  0  0  0  0  0  0  0  0  0  0  0
   -6.4998   12.5961   -9.7841 C   0  0  0  0  0  0  0  0  0  0  0  0
   -7.9020   12.2992  -10.2333 C   0  0  0  0  0  0  0  0  0  0  0  0
   -8.3962   12.8537  -11.4248 C   0  0  0  0  0  0  0  0  0  0  0  0
   -7.5958   13.5875  -12.2128 F   0  0  0  0  0  0  0  0  0  0  0  0
   -9.7267   12.6853  -11.7976 C   0  0  0  0  0  0  0  0  0  0  0  0
  -10.1863   13.2652  -12.9151 F   0  0  0  0  0  0  0  0  0  0  0  0
  -10.5799   11.9311  -11.0072 C   0  0  0  0  0  0  0  0  0  0  0  0
  -11.8594   11.7654  -11.3697 F   0  0  0  0  0  0  0  0  0  0  0  0
  -10.1069   11.3498   -9.8403 C   0  0  0  0  0  0  0  0  0  0  0  0
  -10.9241   10.5996   -9.0882 F   0  0  0  0  0  0  0  0  0  0  0  0
   -8.7852   11.5453   -9.4466 C   0  0  0  0  0  0  0  0  0  0  0  0
   -8.3617   10.9832   -8.3045 F   0  0  0  0  0  0  0  0  0  0  0  0
   -6.1858   13.9542   -9.4224 C   0  0  0  0  0  0  0  0  0  0  0  0
   -7.0278   15.0520   -9.3972 C   0  0  0  0  0  0  0  0  0  0  0  0
   -6.2697   16.1763   -9.0640 C   0  0  0  0  0  0  0  0  0  0  0  0
   -4.9719   15.7686   -8.8003 C   0  0  0  0  0  0  0  0  0  0  0  0
   -4.9324   14.4024   -9.0317 N   0  0  0  0  0  0  0  0  0  0  0  0
   -3.8508   16.5692   -8.3739 C   0  0  0  0  0  0  0  0  0  0  0  0
   -4.0872   18.0431   -8.1897 C   0  0  0  0  0  0  0  0  0  0  0  0
   -4.9573   18.5028   -7.1871 C   0  0  0  0  0  0  0  0  0  0  0  0
   -5.5266   17.6364   -6.3354 F   0  0  0  0  0  0  0  0  0  0  0  0
   -5.2780   19.8530   -7.0763 C   0  0  0  0  0  0  0  0  0  0  0  0
   -6.1497   20.2589   -6.1426 F   0  0  0  0  0  0  0  0  0  0  0  0
   -4.7076   20.7754   -7.9392 C   0  0  0  0  0  0  0  0  0  0  0  0
   -5.0084   22.0764   -7.8254 F   0  0  0  0  0  0  0  0  0  0  0  0
   -3.8250   20.3488   -8.9202 C   0  0  0  0  0  0  0  0  0  0  0  0
   -3.2521   21.2426   -9.7382 F   0  0  0  0  0  0  0  0  0  0  0  0
   -3.5314   18.9940   -9.0578 C   0  0  0  0  0  0  0  0  0  0  0  0
   -2.6865   18.6115  -10.0271 F   0  0  0  0  0  0  0  0  0  0  0  0
   -2.6113   16.0850   -8.1134 C   0  0  0  0  0  0  0  0  0  0  0  0
   -2.1538   14.7749   -8.1855 N   0  0  0  0  0  0  0  0  0  0  0  0
   -0.8855   14.8141   -7.8552 C   0  0  0  0  0  0  0  0  0  0  0  0
    0.1022   13.6813   -7.7357 C   0  0  0  0  0  0  0  0  0  0  0  0
    1.5063   13.9308   -7.3121 C   0  0  0  0  0  0  0  0  0  0  0  0
    2.5817   13.7290   -8.1912 C   0  0  0  0  0  0  0  0  0  0  0  0
    2.3541   13.3276   -9.4506 F   0  0  0  0  0  0  0  0  0  0  0  0
    3.8984   13.9151   -7.7754 C   0  0  0  0  0  0  0  0  0  0  0  0
    4.9073   13.6749   -8.6239 F   0  0  0  0  0  0  0  0  0  0  0  0
    4.1656   14.3428   -6.4841 C   0  0  0  0  0  0  0  0  0  0  0  0
    5.4310   14.5354   -6.0880 F   0  0  0  0  0  0  0  0  0  0  0  0
    3.1183   14.5759   -5.6056 C   0  0  0  0  0  0  0  0  0  0  0  0
    3.3701   15.0202   -4.3667 F   0  0  0  0  0  0  0  0  0  0  0  0
    1.8027   14.3578   -6.0106 C   0  0  0  0  0  0  0  0  0  0  0  0
    0.8094   14.5936   -5.1409 F   0  0  0  0  0  0  0  0  0  0  0  0
   -0.2950   12.4236   -8.0162 C   0  0  0  0  0  0  0  0  0  0  0  0
    0.5455   11.2283   -7.9513 C   0  0  0  0  0  0  0  0  0  0  0  0
   -0.1545   10.1706   -8.3947 C   0  0  0  0  0  0  0  0  0  0  0  0
   -1.5065   10.6071   -8.7329 C   0  0  0  0  0  0  0  0  0  0  0  0
   -1.5108   11.9501   -8.4440 N   0  0  0  0  0  0  0  0  0  0  0  0
   -0.3881   16.1665   -7.5619 C   0  0  0  0  0  0  0  0  0  0  0  0
   -1.4885   16.8955   -7.6921 C   0  0  0  0  0  0  0  0  0  0  0  0
   -5.9193   10.2094  -10.1137 C   0  0  0  0  0  0  0  0  0  0  0  0
   -4.8747    9.4173   -9.9208 C   0  0  0  0  0  0  0  0  0  0  0  0
   -2.1312    7.9333  -10.8404 C   0  0  0  0  0  0  0  0  0  0  0  0
   -2.0661    6.5668  -11.1283 C   0  0  0  0  0  0  0  0  0  0  0  0
   -0.4174    2.1952   -2.9436 C   0  0  0  0  0  0  0  0  0  0  0  0
    0.8297    3.5041    0.3568 H   0  0  0  0  0  0  0  0  0  0  0  0
    1.3205    2.5922   -1.0505 H   0  0  0  0  0  0  0  0  0  0  0  0
    2.3120    2.5796    0.3882 H   0  0  0  0  0  0  0  0  0  0  0  0
    0.6951    1.4654    1.5966 H   0  0  0  0  0  0  0  0  0  0  0  0
    0.3677   -0.7126    0.1766 H   0  0  0  0  0  0  0  0  0  0  0  0
    1.9614   -0.1516    0.7741 H   0  0  0  0  0  0  0  0  0  0  0  0
   -1.1809    0.5120    0.8122 H   0  0  0  0  0  0  0  0  0  0  0  0
   -1.3058    3.4155    0.9534 H   0  0  0  0  0  0  0  0  0  0  0  0
   -1.1554    2.3247    2.3101 H   0  0  0  0  0  0  0  0  0  0  0  0
   -2.6043    2.3099    1.3337 H   0  0  0  0  0  0  0  0  0  0  0  0
   -2.6427    1.3018   -0.7207 H   0  0  0  0  0  0  0  0  0  0  0  0
   -1.1794    0.4368   -1.3143 H   0  0  0  0  0  0  0  0  0  0  0  0
   -2.4976    3.8995   -0.9435 H   0  0  0  0  0  0  0  0  0  0  0  0
   -0.1210    5.3178   -4.0992 H   0  0  0  0  0  0  0  0  0  0  0  0
    1.1792    2.0004   -5.1163 H   0  0  0  0  0  0  0  0  0  0  0  0
    1.9478    4.8084   -4.7253 H   0  0  0  0  0  0  0  0  0  0  0  0
    3.8636    1.6375   -8.3610 H   0  0  0  0  0  0  0  0  0  0  0  0
    4.3781    3.3362   -8.0228 H   0  0  0  0  0  0  0  0  0  0  0  0
    2.5632    2.2786  -10.0295 H   0  0  0  0  0  0  0  0  0  0  0  0
    3.8239    3.6572   -9.9813 H   0  0  0  0  0  0  0  0  0  0  0  0
    0.5171    5.2794   -8.9200 H   0  0  0  0  0  0  0  0  0  0  0  0
    1.7395    4.5446   -7.7848 H   0  0  0  0  0  0  0  0  0  0  0  0
   -0.8594    3.6007   -8.5770 H   0  0  0  0  0  0  0  0  0  0  0  0
    0.1681    3.3279   -7.1162 H   0  0  0  0  0  0  0  0  0  0  0  0
   -0.6183    0.7189   -9.7079 H   0  0  0  0  0  0  0  0  0  0  0  0
    0.9806    1.5011  -10.3152 H   0  0  0  0  0  0  0  0  0  0  0  0
   -1.6889    1.9778  -11.0779 H   0  0  0  0  0  0  0  0  0  0  0  0
   -0.0587    2.3396  -11.8032 H   0  0  0  0  0  0  0  0  0  0  0  0
   -2.1691    5.3989   -7.9809 H   0  0  0  0  0  0  0  0  0  0  0  0
   -2.2049    7.7739   -7.4835 H   0  0  0  0  0  0  0  0  0  0  0  0
   -8.0413   15.0416   -9.5912 H   0  0  0  0  0  0  0  0  0  0  0  0
   -6.6173   17.1471   -9.0213 H   0  0  0  0  0  0  0  0  0  0  0  0
   -4.1340   13.8349   -8.9334 H   0  0  0  0  0  0  0  0  0  0  0  0
    1.5217   11.2016   -7.6177 H   0  0  0  0  0  0  0  0  0  0  0  0
    0.2046    9.2070   -8.4820 H   0  0  0  0  0  0  0  0  0  0  0  0
   -2.3093   12.5187   -8.5350 H   0  0  0  0  0  0  0  0  0  0  0  0
    0.5679   16.4694   -7.3183 H   0  0  0  0  0  0  0  0  0  0  0  0
   -1.5378   17.9111   -7.5155 H   0  0  0  0  0  0  0  0  0  0  0  0
   -6.8339    9.8924  -10.4716 H   0  0  0  0  0  0  0  0  0  0  0  0
   -4.8015    8.3952  -10.0436 H   0  0  0  0  0  0  0  0  0  0  0  0
   -2.1141    8.6194  -11.6111 H   0  0  0  0  0  0  0  0  0  0  0  0
   -1.9979    6.2420  -12.1055 H   0  0  0  0  0  0  0  0  0  0  0  0
   -0.1334    1.2272   -3.1614 H   0  0  0  0  0  0  0  0  0  0  0  0
  1 95  1  0  0  0  0
  1 96  1  0  0  0  0
  1 97  1  0  0  0  0
  2  6  1  0  0  0  0
  2  3  1  0  0  0  0
  2  1  1  0  0  0  0
  2 98  1  1  0  0  0
  3  4  1  0  0  0  0
  3 99  1  0  0  0  0
  3100  1  0  0  0  0
  4  5  3  0  0  0  0
  6  7  1  0  0  0  0
  6  8  1  0  0  0  0
  6101  1  1  0  0  0
  7102  1  0  0  0  0
  7103  1  0  0  0  0
  7104  1  0  0  0  0
  8  9  1  0  0  0  0
  8105  1  0  0  0  0
  8106  1  0  0  0  0
  9 10  1  0  0  0  0
  9 94  2  0  0  0  0
 10 11  2  0  0  0  0
 10107  1  0  0  0  0
 11 12  1  0  0  0  0
 11 13  1  0  0  0  0
 13 14  2  0  0  0  0
 13108  1  0  0  0  0
 14 15  1  0  0  0  0
 14 94  1  0  0  0  0
 15 16  2  0  0  0  0
 15109  1  0  0  0  0
 16 17  1  0  0  0  0
 16110  1  0  0  0  0
 17 18  2  0  0  0  0
 17 19  1  0  0  0  0
 19 20  1  0  0  0  0
 20 21  1  0  0  0  0
 20111  1  0  0  0  0
 20112  1  0  0  0  0
 21 22  1  0  0  0  0
 21113  1  0  0  0  0
 21114  1  0  0  0  0
 22 23  1  0  0  0  0
 23 24  1  0  0  0  0
 23115  1  0  0  0  0
 23116  1  0  0  0  0
 24 25  1  0  0  0  0
 24117  1  0  0  0  0
 24118  1  0  0  0  0
 25 26  1  0  0  0  0
 26 27  1  0  0  0  0
 26119  1  0  0  0  0
 26120  1  0  0  0  0
 27 28  1  0  0  0  0
 27121  1  0  0  0  0
 27122  1  0  0  0  0
 28 29  1  0  0  0  0
 29 30  2  0  0  0  0
 29 31  1  0  0  0  0
 31 32  1  0  0  0  0
 31 93  2  0  0  0  0
 32 33  2  0  0  0  0
 32123  1  0  0  0  0
 33 34  1  0  0  0  0
 33124  1  0  0  0  0
 34 35  1  0  0  0  0
 34 92  2  0  0  0  0
 35 36  1  0  0  0  0
 35 86  2  0  0  0  0
 36 37  2  0  0  0  0
 36 91  1  0  0  0  0
 37 38  1  0  0  0  0
 38 39  2  0  0  0  0
 38 90  1  0  0  0  0
 39 40  1  0  0  0  0
 39 51  1  0  0  0  0
 40 41  1  0  0  0  0
 40 49  2  0  0  0  0
 41 42  1  0  0  0  0
 41 43  2  0  0  0  0
 43 44  1  0  0  0  0
 43 45  1  0  0  0  0
 45 46  1  0  0  0  0
 45 47  2  0  0  0  0
 47 48  1  0  0  0  0
 47 49  1  0  0  0  0
 49 50  1  0  0  0  0
 51 52  2  0  0  0  0
 51 55  1  0  0  0  0
 52 53  1  0  0  0  0
 52125  1  0  0  0  0
 53 54  2  0  0  0  0
 53126  1  0  0  0  0
 54 55  1  0  0  0  0
 54 56  1  0  0  0  0
 55127  1  0  0  0  0
 56 57  1  0  0  0  0
 56 68  2  0  0  0  0
 57 58  1  0  0  0  0
 57 66  2  0  0  0  0
 58 59  1  0  0  0  0
 58 60  2  0  0  0  0
 60 61  1  0  0  0  0
 60 62  1  0  0  0  0
 62 63  1  0  0  0  0
 62 64  2  0  0  0  0
 64 65  1  0  0  0  0
 64 66  1  0  0  0  0
 66 67  1  0  0  0  0
 68 69  1  0  0  0  0
 68 89  1  0  0  0  0
 69 70  2  0  0  0  0
 70 71  1  0  0  0  0
 70 88  1  0  0  0  0
 71 72  1  0  0  0  0
 71 83  2  0  0  0  0
 72 73  1  0  0  0  0
 72 81  2  0  0  0  0
 73 74  1  0  0  0  0
 73 75  2  0  0  0  0
 75 76  1  0  0  0  0
 75 77  1  0  0  0  0
 77 78  1  0  0  0  0
 77 79  2  0  0  0  0
 79 80  1  0  0  0  0
 79 81  1  0  0  0  0
 81 82  1  0  0  0  0
 83 84  1  0  0  0  0
 83 87  1  0  0  0  0
 84 85  2  0  0  0  0
 84128  1  0  0  0  0
 85 86  1  0  0  0  0
 85129  1  0  0  0  0
 86 87  1  0  0  0  0
 87130  1  0  0  0  0
 88 89  2  0  0  0  0
 88131  1  0  0  0  0
 89132  1  0  0  0  0
 90 91  2  0  0  0  0
 90133  1  0  0  0  0
 91134  1  0  0  0  0
 92 93  1  0  0  0  0
 92135  1  0  0  0  0
 93136  1  0  0  0  0
 94137  1  0  0  0  0
M  CHG  1   6   1
M  END
$$$$
