0_5_1494
 OpenBabel04152301353D

130140  0  0  1  0  0  0  0  0999 V2000
    4.3270    3.6127   -5.2055 C   0  0  0  0  0  0  0  0  0  0  0  0
    4.1917    2.3338   -4.5523 N   0  0  0  0  0  0  0  0  0  0  0  0
    3.8192    2.1014   -3.2603 C   0  0  0  0  0  0  0  0  0  0  0  0
    3.7144    0.7294   -3.1222 C   0  0  0  0  0  0  0  0  0  0  0  0
    3.2683   -0.0116   -1.8980 C   0  0  0  0  0  0  0  0  0  0  0  0
    3.1823   -1.5573   -2.0221 C   0  0  2  0  0  0  0  0  0  0  0  0
    1.9955   -1.9807   -1.1386 C   0  0  0  0  0  0  0  0  0  0  0  0
    0.8392   -1.7020   -1.4450 O   0  0  0  0  0  0  0  0  0  0  0  0
    2.3349   -2.5830    0.0303 O   0  0  0  0  0  0  0  0  0  0  0  0
    1.2770   -2.8166    0.9846 C   0  0  0  0  0  0  0  0  0  0  0  0
    1.6289   -2.3967    2.4202 C   0  0  0  0  0  0  0  0  0  0  0  0
    2.0269   -1.0454    2.6402 O   0  0  0  0  0  0  0  0  0  0  0  0
    3.0868   -0.5042    1.8580 C   0  0  0  0  0  0  0  0  0  0  0  0
    4.3423   -1.3594    1.6041 C   0  0  0  0  0  0  0  0  0  0  0  0
    4.3585   -2.5634    2.3351 O   0  0  0  0  0  0  0  0  0  0  0  0
    5.3876   -2.7334    3.2876 C   0  0  0  0  0  0  0  0  0  0  0  0
    5.5019   -1.6934    4.4145 C   0  0  0  0  0  0  0  0  0  0  0  0
    5.3410   -0.3119    4.0428 O   0  0  0  0  0  0  0  0  0  0  0  0
    6.3925    0.3102    3.4709 C   0  0  0  0  0  0  0  0  0  0  0  0
    7.4875   -0.1764    3.2132 O   0  0  0  0  0  0  0  0  0  0  0  0
    5.9452    1.6427    3.0100 C   0  0  0  0  0  0  0  0  0  0  0  0
    5.9683    1.9417    1.6394 C   0  0  0  0  0  0  0  0  0  0  0  0
    5.5762    3.2057    1.1882 C   0  0  0  0  0  0  0  0  0  0  0  0
    5.1945    4.1904    2.1094 C   0  0  0  0  0  0  0  0  0  0  0  0
    5.0358    5.6037    1.6791 C   0  0  0  0  0  0  0  0  0  0  0  0
    6.1813    6.5536    1.9006 C   0  0  0  0  0  0  0  0  0  0  0  0
    6.2476    7.8454    1.6992 N   0  0  0  0  0  0  0  0  0  0  0  0
    7.5290    8.2204    2.0825 C   0  0  0  0  0  0  0  0  0  0  0  0
    8.1020    9.4473    2.0380 C   0  0  0  0  0  0  0  0  0  0  0  0
    9.5149    9.5664    2.5346 C   0  0  0  0  0  0  0  0  0  0  0  0
   10.5940    8.9984    1.8397 C   0  0  0  0  0  0  0  0  0  0  0  0
   10.3802    8.3022    0.7128 F   0  0  0  0  0  0  0  0  0  0  0  0
   11.8945    9.1007    2.3275 C   0  0  0  0  0  0  0  0  0  0  0  0
   12.9007    8.4988    1.6783 F   0  0  0  0  0  0  0  0  0  0  0  0
   12.1473    9.8071    3.4936 C   0  0  0  0  0  0  0  0  0  0  0  0
   13.3996    9.9072    3.9602 F   0  0  0  0  0  0  0  0  0  0  0  0
   11.1004   10.4012    4.1814 C   0  0  0  0  0  0  0  0  0  0  0  0
   11.3440   11.0967    5.3008 F   0  0  0  0  0  0  0  0  0  0  0  0
    9.7950   10.2712    3.7152 C   0  0  0  0  0  0  0  0  0  0  0  0
    8.8020   10.8384    4.4166 F   0  0  0  0  0  0  0  0  0  0  0  0
    7.4354   10.6378    1.5793 C   0  0  0  0  0  0  0  0  0  0  0  0
    7.9353   11.9247    1.4835 C   0  0  0  0  0  0  0  0  0  0  0  0
    6.9016   12.7655    1.0579 C   0  0  0  0  0  0  0  0  0  0  0  0
    5.7766   11.9921    0.8212 C   0  0  0  0  0  0  0  0  0  0  0  0
    6.1161   10.6897    1.1532 N   0  0  0  0  0  0  0  0  0  0  0  0
    4.4854   12.4075    0.3325 C   0  0  0  0  0  0  0  0  0  0  0  0
    4.2964   13.8644    0.0092 C   0  0  0  0  0  0  0  0  0  0  0  0
    3.4697   14.6955    0.7795 C   0  0  0  0  0  0  0  0  0  0  0  0
    2.7712   14.1884    1.8065 F   0  0  0  0  0  0  0  0  0  0  0  0
    3.3265   16.0474    0.4735 C   0  0  0  0  0  0  0  0  0  0  0  0
    2.4919   16.8105    1.1930 F   0  0  0  0  0  0  0  0  0  0  0  0
    4.0349   16.6029   -0.5815 C   0  0  0  0  0  0  0  0  0  0  0  0
    3.9035   17.9055   -0.8677 F   0  0  0  0  0  0  0  0  0  0  0  0
    4.8743   15.8057   -1.3437 C   0  0  0  0  0  0  0  0  0  0  0  0
    5.5737   16.3429   -2.3529 F   0  0  0  0  0  0  0  0  0  0  0  0
    4.9930   14.4474   -1.0619 C   0  0  0  0  0  0  0  0  0  0  0  0
    5.8042   13.7015   -1.8271 F   0  0  0  0  0  0  0  0  0  0  0  0
    3.4389   11.5727    0.1124 C   0  0  0  0  0  0  0  0  0  0  0  0
    3.3675   10.1945    0.2831 N   0  0  0  0  0  0  0  0  0  0  0  0
    2.1482    9.8496   -0.0540 C   0  0  0  0  0  0  0  0  0  0  0  0
    1.5194    8.4780   -0.0947 C   0  0  0  0  0  0  0  0  0  0  0  0
    0.1005    8.3112   -0.5098 C   0  0  0  0  0  0  0  0  0  0  0  0
   -0.3009    8.5541   -1.8307 C   0  0  0  0  0  0  0  0  0  0  0  0
    0.5999    8.9527   -2.7410 F   0  0  0  0  0  0  0  0  0  0  0  0
   -1.6362    8.4339   -2.2118 C   0  0  0  0  0  0  0  0  0  0  0  0
   -1.9992    8.7198   -3.4696 F   0  0  0  0  0  0  0  0  0  0  0  0
   -2.5912    8.0376   -1.2878 C   0  0  0  0  0  0  0  0  0  0  0  0
   -3.8738    7.9174   -1.6562 F   0  0  0  0  0  0  0  0  0  0  0  0
   -2.2158    7.7756    0.0209 C   0  0  0  0  0  0  0  0  0  0  0  0
   -3.1330    7.3820    0.9148 F   0  0  0  0  0  0  0  0  0  0  0  0
   -0.8863    7.9257    0.4100 C   0  0  0  0  0  0  0  0  0  0  0  0
   -0.5567    7.6871    1.6878 F   0  0  0  0  0  0  0  0  0  0  0  0
    2.2462    7.4003    0.2638 C   0  0  0  0  0  0  0  0  0  0  0  0
    1.7723    6.0162    0.2882 C   0  0  0  0  0  0  0  0  0  0  0  0
    2.7314    5.2282    0.8058 C   0  0  0  0  0  0  0  0  0  0  0  0
    3.8998    6.0478    1.1130 C   0  0  0  0  0  0  0  0  0  0  0  0
    3.5402    7.3135    0.7152 N   0  0  0  0  0  0  0  0  0  0  0  0
    1.2968   10.9824   -0.4480 C   0  0  0  0  0  0  0  0  0  0  0  0
    2.1430   11.9999   -0.3704 C   0  0  0  0  0  0  0  0  0  0  0  0
    8.1956    7.0266    2.5566 C   0  0  0  0  0  0  0  0  0  0  0  0
    7.4207    5.9610    2.4265 C   0  0  0  0  0  0  0  0  0  0  0  0
    5.1330    3.8686    3.4780 C   0  0  0  0  0  0  0  0  0  0  0  0
    5.5039    2.5972    3.9288 C   0  0  0  0  0  0  0  0  0  0  0  0
    4.5141   -2.3078   -1.8356 C   0  0  0  0  0  0  0  0  0  0  0  0
    4.5219   -3.7098   -1.7106 C   0  0  0  0  0  0  0  0  0  0  0  0
    5.7162   -4.4118   -1.5095 C   0  0  0  0  0  0  0  0  0  0  0  0
    6.9210   -3.7261   -1.4565 C   0  0  0  0  0  0  0  0  0  0  0  0
    8.0614   -4.3989   -1.2548 F   0  0  0  0  0  0  0  0  0  0  0  0
    6.9569   -2.3510   -1.6174 C   0  0  0  0  0  0  0  0  0  0  0  0
    5.7641   -1.6485   -1.8170 C   0  0  0  0  0  0  0  0  0  0  0  0
    4.1010    0.2365   -4.3913 C   0  0  0  0  0  0  0  0  0  0  0  0
    4.3973    1.2086   -5.2544 N   0  0  0  0  0  0  0  0  0  0  0  0
    4.1295    4.3949   -4.5026 H   0  0  0  0  0  0  0  0  0  0  0  0
    3.6295    3.6756   -6.0145 H   0  0  0  0  0  0  0  0  0  0  0  0
    5.3224    3.7163   -5.5840 H   0  0  0  0  0  0  0  0  0  0  0  0
    3.6491    2.8102   -2.5298 H   0  0  0  0  0  0  0  0  0  0  0  0
    2.2958    0.3489   -1.6351 H   0  0  0  0  0  0  0  0  0  0  0  0
    4.0223    0.1739   -1.1618 H   0  0  0  0  0  0  0  0  0  0  0  0
    2.9886   -1.8600   -3.0299 H   0  0  0  0  0  0  0  0  0  0  0  0
    1.0492   -3.8621    0.9857 H   0  0  0  0  0  0  0  0  0  0  0  0
    0.4460   -2.2152    0.6802 H   0  0  0  0  0  0  0  0  0  0  0  0
    2.4321   -3.0231    2.7478 H   0  0  0  0  0  0  0  0  0  0  0  0
    0.7122   -2.4987    2.9625 H   0  0  0  0  0  0  0  0  0  0  0  0
    3.4111    0.3908    2.3466 H   0  0  0  0  0  0  0  0  0  0  0  0
    2.6545   -0.3899    0.8859 H   0  0  0  0  0  0  0  0  0  0  0  0
    5.2036   -0.7860    1.8766 H   0  0  0  0  0  0  0  0  0  0  0  0
    4.3409   -1.6208    0.5665 H   0  0  0  0  0  0  0  0  0  0  0  0
    6.3167   -2.7321    2.7569 H   0  0  0  0  0  0  0  0  0  0  0  0
    5.1425   -3.6467    3.7883 H   0  0  0  0  0  0  0  0  0  0  0  0
    6.4712   -1.7991    4.8552 H   0  0  0  0  0  0  0  0  0  0  0  0
    4.6844   -1.9030    5.0723 H   0  0  0  0  0  0  0  0  0  0  0  0
    6.2757    1.2263    0.9621 H   0  0  0  0  0  0  0  0  0  0  0  0
    5.5679    3.4134    0.1773 H   0  0  0  0  0  0  0  0  0  0  0  0
    8.9040   12.2142    1.6904 H   0  0  0  0  0  0  0  0  0  0  0  0
    6.9660   13.7887    0.9401 H   0  0  0  0  0  0  0  0  0  0  0  0
    5.5104    9.9158    1.0952 H   0  0  0  0  0  0  0  0  0  0  0  0
    0.8480    5.6953   -0.0400 H   0  0  0  0  0  0  0  0  0  0  0  0
    2.6541    4.2108    0.9605 H   0  0  0  0  0  0  0  0  0  0  0  0
    4.1519    8.0841    0.7505 H   0  0  0  0  0  0  0  0  0  0  0  0
    0.3000   10.9846   -0.7153 H   0  0  0  0  0  0  0  0  0  0  0  0
    1.9077   12.9727   -0.6222 H   0  0  0  0  0  0  0  0  0  0  0  0
    9.1513    7.0083    2.9457 H   0  0  0  0  0  0  0  0  0  0  0  0
    7.6311    4.9732    2.6385 H   0  0  0  0  0  0  0  0  0  0  0  0
    4.8112    4.5773    4.1556 H   0  0  0  0  0  0  0  0  0  0  0  0
    5.4517    2.3664    4.9333 H   0  0  0  0  0  0  0  0  0  0  0  0
    3.6319   -4.2291   -1.7682 H   0  0  0  0  0  0  0  0  0  0  0  0
    5.7004   -5.4379   -1.4008 H   0  0  0  0  0  0  0  0  0  0  0  0
    7.8577   -1.8481   -1.5902 H   0  0  0  0  0  0  0  0  0  0  0  0
    5.7974   -0.6261   -1.9537 H   0  0  0  0  0  0  0  0  0  0  0  0
    4.1485   -0.7679   -4.6238 H   0  0  0  0  0  0  0  0  0  0  0  0
  1  2  1  0  0  0  0
  1 93  1  0  0  0  0
  1 94  1  0  0  0  0
  1 95  1  0  0  0  0
  2  3  1  0  0  0  0
  2 92  1  0  0  0  0
  3  4  2  0  0  0  0
  3 96  1  0  0  0  0
  4  5  1  0  0  0  0
  4 91  1  0  0  0  0
  5 97  1  0  0  0  0
  5 98  1  0  0  0  0
  6 84  1  0  0  0  0
  6  7  1  0  0  0  0
  6  5  1  0  0  0  0
  6 99  1  6  0  0  0
  7  8  2  0  0  0  0
  7  9  1  0  0  0  0
  9 10  1  0  0  0  0
 10 11  1  0  0  0  0
 10100  1  0  0  0  0
 10101  1  0  0  0  0
 11 12  1  0  0  0  0
 11102  1  0  0  0  0
 11103  1  0  0  0  0
 12 13  1  0  0  0  0
 13 14  1  0  0  0  0
 13104  1  0  0  0  0
 13105  1  0  0  0  0
 14 15  1  0  0  0  0
 14106  1  0  0  0  0
 14107  1  0  0  0  0
 15 16  1  0  0  0  0
 16 17  1  0  0  0  0
 16108  1  0  0  0  0
 16109  1  0  0  0  0
 17 18  1  0  0  0  0
 17110  1  0  0  0  0
 17111  1  0  0  0  0
 18 19  1  0  0  0  0
 19 20  2  0  0  0  0
 19 21  1  0  0  0  0
 21 22  1  0  0  0  0
 21 83  2  0  0  0  0
 22 23  2  0  0  0  0
 22112  1  0  0  0  0
 23 24  1  0  0  0  0
 23113  1  0  0  0  0
 24 25  1  0  0  0  0
 24 82  2  0  0  0  0
 25 26  1  0  0  0  0
 25 76  2  0  0  0  0
 26 27  2  0  0  0  0
 26 81  1  0  0  0  0
 27 28  1  0  0  0  0
 28 29  2  0  0  0  0
 28 80  1  0  0  0  0
 29 30  1  0  0  0  0
 29 41  1  0  0  0  0
 30 31  1  0  0  0  0
 30 39  2  0  0  0  0
 31 32  1  0  0  0  0
 31 33  2  0  0  0  0
 33 34  1  0  0  0  0
 33 35  1  0  0  0  0
 35 36  1  0  0  0  0
 35 37  2  0  0  0  0
 37 38  1  0  0  0  0
 37 39  1  0  0  0  0
 39 40  1  0  0  0  0
 41 42  2  0  0  0  0
 41 45  1  0  0  0  0
 42 43  1  0  0  0  0
 42114  1  0  0  0  0
 43 44  2  0  0  0  0
 43115  1  0  0  0  0
 44 45  1  0  0  0  0
 44 46  1  0  0  0  0
 45116  1  0  0  0  0
 46 47  1  0  0  0  0
 46 58  2  0  0  0  0
 47 48  1  0  0  0  0
 47 56  2  0  0  0  0
 48 49  1  0  0  0  0
 48 50  2  0  0  0  0
 50 51  1  0  0  0  0
 50 52  1  0  0  0  0
 52 53  1  0  0  0  0
 52 54  2  0  0  0  0
 54 55  1  0  0  0  0
 54 56  1  0  0  0  0
 56 57  1  0  0  0  0
 58 59  1  0  0  0  0
 58 79  1  0  0  0  0
 59 60  2  0  0  0  0
 60 61  1  0  0  0  0
 60 78  1  0  0  0  0
 61 62  1  0  0  0  0
 61 73  2  0  0  0  0
 62 63  1  0  0  0  0
 62 71  2  0  0  0  0
 63 64  1  0  0  0  0
 63 65  2  0  0  0  0
 65 66  1  0  0  0  0
 65 67  1  0  0  0  0
 67 68  1  0  0  0  0
 67 69  2  0  0  0  0
 69 70  1  0  0  0  0
 69 71  1  0  0  0  0
 71 72  1  0  0  0  0
 73 74  1  0  0  0  0
 73 77  1  0  0  0  0
 74 75  2  0  0  0  0
 74117  1  0  0  0  0
 75 76  1  0  0  0  0
 75118  1  0  0  0  0
 76 77  1  0  0  0  0
 77119  1  0  0  0  0
 78 79  2  0  0  0  0
 78120  1  0  0  0  0
 79121  1  0  0  0  0
 80 81  2  0  0  0  0
 80122  1  0  0  0  0
 81123  1  0  0  0  0
 82 83  1  0  0  0  0
 82124  1  0  0  0  0
 83125  1  0  0  0  0
 84 85  1  0  0  0  0
 84 90  2  0  0  0  0
 85 86  2  0  0  0  0
 85126  1  0  0  0  0
 86 87  1  0  0  0  0
 86127  1  0  0  0  0
 87 88  1  0  0  0  0
 87 89  2  0  0  0  0
 89 90  1  0  0  0  0
 89128  1  0  0  0  0
 90129  1  0  0  0  0
 91 92  2  0  0  0  0
 91130  1  0  0  0  0
M  END
$$$$
