0_5_3662
 OpenBabel04152301363D

138150  0  0  0  0  0  0  0  0999 V2000
    1.6334    0.6084   -1.9699 O   0  0  0  0  0  0  0  0  0  0  0  0
    2.7480    0.3984   -1.4886 C   0  0  0  0  0  0  0  0  0  0  0  0
    3.3448    1.4263   -0.8394 O   0  0  0  0  0  0  0  0  0  0  0  0
    4.6675    1.5156   -0.2935 C   0  0  0  0  0  0  0  0  0  0  0  0
    4.7821    0.9633    1.1307 C   0  0  0  0  0  0  0  0  0  0  0  0
    3.8236   -0.0478    1.4534 O   0  0  0  0  0  0  0  0  0  0  0  0
    2.5736    0.4915    1.9103 C   0  0  0  0  0  0  0  0  0  0  0  0
    2.0107   -0.3143    3.0841 C   0  0  0  0  0  0  0  0  0  0  0  0
    2.7074   -0.1792    4.3224 O   0  0  0  0  0  0  0  0  0  0  0  0
    4.0800   -0.5523    4.3472 C   0  0  0  0  0  0  0  0  0  0  0  0
    4.4152   -2.0482    4.2965 C   0  0  0  0  0  0  0  0  0  0  0  0
    3.8320   -2.7838    3.2074 O   0  0  0  0  0  0  0  0  0  0  0  0
    2.8114   -3.5962    3.5871 C   0  0  0  0  0  0  0  0  0  0  0  0
    2.2705   -3.6345    4.6789 O   0  0  0  0  0  0  0  0  0  0  0  0
    2.4244   -4.5065    2.4940 C   0  0  0  0  0  0  0  0  0  0  0  0
    1.8289   -4.0333    1.3194 C   0  0  0  0  0  0  0  0  0  0  0  0
    1.3070   -4.9429    0.3838 C   0  0  0  0  0  0  0  0  0  0  0  0
    1.3316   -6.3228    0.6377 C   0  0  0  0  0  0  0  0  0  0  0  0
    0.7731   -7.2649   -0.2808 N   0  0  0  0  0  0  0  0  0  0  0  0
    1.0968   -7.2098   -1.6358 C   0  0  0  0  0  0  0  0  0  0  0  0
    1.7378   -6.3390   -2.2111 O   0  0  0  0  0  0  0  0  0  0  0  0
    0.5523   -8.4098   -2.3451 C   0  0  0  0  0  0  0  0  0  0  0  0
    0.9476   -8.7530   -3.5812 C   0  0  0  0  0  0  0  0  0  0  0  0
    0.5320   -9.8857   -4.3898 C   0  0  0  0  0  0  0  0  0  0  0  0
    1.2773  -10.5176   -5.2994 C   0  0  0  0  0  0  0  0  0  0  0  0
    2.6298  -10.4259   -5.7573 C   0  0  0  0  0  0  0  0  0  0  0  0
    3.0544  -11.2846   -6.7000 C   0  0  0  0  0  0  0  0  0  0  0  0
    2.1749  -12.2955   -7.2630 C   0  0  0  0  0  0  0  0  0  0  0  0
    0.8916  -12.4286   -6.8905 C   0  0  0  0  0  0  0  0  0  0  0  0
    0.3503  -11.5192   -5.8589 C   0  0  0  0  0  0  0  0  0  0  0  0
   -0.8686  -11.5349   -5.4159 N   0  0  0  0  0  0  0  0  0  0  0  0
   -0.8568  -10.4727   -4.3789 C   0  0  0  0  0  0  0  0  0  0  0  0
   -0.4839   -9.2810   -1.2937 S   0  0  0  0  0  0  0  0  0  0  0  0
   -0.0945   -8.2824    0.0973 C   0  0  0  0  0  0  0  0  0  0  0  0
   -0.8233   -8.5719    1.5772 S   0  0  0  0  0  0  0  0  0  0  0  0
    1.9634   -6.7794    1.8059 C   0  0  0  0  0  0  0  0  0  0  0  0
    2.5273   -5.8801    2.7095 C   0  0  0  0  0  0  0  0  0  0  0  0
    3.2437   -6.3530    3.7733 O   0  0  0  0  0  0  0  0  0  0  0  0
    3.3157   -0.9876   -1.6501 C   0  0  0  0  0  0  0  0  0  0  0  0
    2.5138   -1.9121   -2.3511 C   0  0  0  0  0  0  0  0  0  0  0  0
    2.9444   -3.2225   -2.5982 C   0  0  0  0  0  0  0  0  0  0  0  0
    4.2026   -3.6412   -2.1582 C   0  0  0  0  0  0  0  0  0  0  0  0
    4.7952   -4.9183   -2.6054 C   0  0  0  0  0  0  0  0  0  0  0  0
    4.9583   -6.0919   -1.6933 C   0  0  0  0  0  0  0  0  0  0  0  0
    5.2971   -7.3214   -1.9925 N   0  0  0  0  0  0  0  0  0  0  0  0
    5.2010   -8.0347   -0.8085 C   0  0  0  0  0  0  0  0  0  0  0  0
    5.3044   -9.3713   -0.6399 C   0  0  0  0  0  0  0  0  0  0  0  0
    4.8353   -9.9690    0.6473 C   0  0  0  0  0  0  0  0  0  0  0  0
    3.4724  -10.2608    0.8054 C   0  0  0  0  0  0  0  0  0  0  0  0
    2.5879   -9.8569   -0.1182 F   0  0  0  0  0  0  0  0  0  0  0  0
    3.0128  -10.9747    1.9070 C   0  0  0  0  0  0  0  0  0  0  0  0
    1.7065  -11.2447    2.0288 F   0  0  0  0  0  0  0  0  0  0  0  0
    3.9065  -11.4082    2.8728 C   0  0  0  0  0  0  0  0  0  0  0  0
    3.4655  -12.1064    3.9280 F   0  0  0  0  0  0  0  0  0  0  0  0
    5.2575  -11.1143    2.7448 C   0  0  0  0  0  0  0  0  0  0  0  0
    6.1203  -11.5346    3.6799 F   0  0  0  0  0  0  0  0  0  0  0  0
    5.7208  -10.3985    1.6411 C   0  0  0  0  0  0  0  0  0  0  0  0
    7.0329  -10.1480    1.5297 F   0  0  0  0  0  0  0  0  0  0  0  0
    5.7671  -10.2685   -1.6603 C   0  0  0  0  0  0  0  0  0  0  0  0
    5.8746  -11.6462   -1.6207 C   0  0  0  0  0  0  0  0  0  0  0  0
    6.5184  -12.0601   -2.7918 C   0  0  0  0  0  0  0  0  0  0  0  0
    6.7708  -10.9439   -3.5745 C   0  0  0  0  0  0  0  0  0  0  0  0
    6.2798   -9.8552   -2.8788 N   0  0  0  0  0  0  0  0  0  0  0  0
    7.4431  -10.8651   -4.8450 C   0  0  0  0  0  0  0  0  0  0  0  0
    8.0037  -12.1350   -5.4044 C   0  0  0  0  0  0  0  0  0  0  0  0
    9.3826  -12.3828   -5.4184 C   0  0  0  0  0  0  0  0  0  0  0  0
   10.2418  -11.4407   -5.0014 F   0  0  0  0  0  0  0  0  0  0  0  0
    9.8832  -13.5931   -5.8878 C   0  0  0  0  0  0  0  0  0  0  0  0
   11.2070  -13.7967   -5.9281 F   0  0  0  0  0  0  0  0  0  0  0  0
    9.0150  -14.5858   -6.3194 C   0  0  0  0  0  0  0  0  0  0  0  0
    9.4986  -15.7565   -6.7560 F   0  0  0  0  0  0  0  0  0  0  0  0
    7.6464  -14.3639   -6.3031 C   0  0  0  0  0  0  0  0  0  0  0  0
    6.8047  -15.3259   -6.7054 F   0  0  0  0  0  0  0  0  0  0  0  0
    7.1445  -13.1440   -5.8637 C   0  0  0  0  0  0  0  0  0  0  0  0
    5.8167  -12.9534   -5.8627 F   0  0  0  0  0  0  0  0  0  0  0  0
    7.5978   -9.7357   -5.5780 C   0  0  0  0  0  0  0  0  0  0  0  0
    7.1409   -8.4546   -5.3075 N   0  0  0  0  0  0  0  0  0  0  0  0
    7.5291   -7.7124   -6.3164 C   0  0  0  0  0  0  0  0  0  0  0  0
    7.2523   -6.2610   -6.5832 C   0  0  0  0  0  0  0  0  0  0  0  0
    7.7184   -5.5878   -7.8186 C   0  0  0  0  0  0  0  0  0  0  0  0
    7.1545   -5.9008   -9.0609 C   0  0  0  0  0  0  0  0  0  0  0  0
    6.2232   -6.8617   -9.1490 F   0  0  0  0  0  0  0  0  0  0  0  0
    7.5587   -5.2409  -10.2185 C   0  0  0  0  0  0  0  0  0  0  0  0
    7.0222   -5.5776  -11.3990 F   0  0  0  0  0  0  0  0  0  0  0  0
    8.5170   -4.2401  -10.1515 C   0  0  0  0  0  0  0  0  0  0  0  0
    8.8957   -3.5976  -11.2645 F   0  0  0  0  0  0  0  0  0  0  0  0
    9.0835   -3.9075   -8.9302 C   0  0  0  0  0  0  0  0  0  0  0  0
    9.9974   -2.9301   -8.8588 F   0  0  0  0  0  0  0  0  0  0  0  0
    8.6969   -4.5829   -7.7753 C   0  0  0  0  0  0  0  0  0  0  0  0
    9.2575   -4.2400   -6.6059 F   0  0  0  0  0  0  0  0  0  0  0  0
    6.5094   -5.5706   -5.7009 C   0  0  0  0  0  0  0  0  0  0  0  0
    6.0671   -4.1890   -5.8602 C   0  0  0  0  0  0  0  0  0  0  0  0
    5.3670   -3.8297   -4.7741 C   0  0  0  0  0  0  0  0  0  0  0  0
    5.3309   -4.9549   -3.8384 C   0  0  0  0  0  0  0  0  0  0  0  0
    6.0006   -5.9559   -4.4886 N   0  0  0  0  0  0  0  0  0  0  0  0
    8.3164   -8.4327   -7.3243 C   0  0  0  0  0  0  0  0  0  0  0  0
    8.2930   -9.6700   -6.8470 C   0  0  0  0  0  0  0  0  0  0  0  0
    4.9057   -7.0884    0.2379 C   0  0  0  0  0  0  0  0  0  0  0  0
    4.7374   -5.8681   -0.2592 C   0  0  0  0  0  0  0  0  0  0  0  0
    4.9929   -2.7483   -1.4371 C   0  0  0  0  0  0  0  0  0  0  0  0
    4.5487   -1.4478   -1.1828 C   0  0  0  0  0  0  0  0  0  0  0  0
    4.9597    2.5449   -0.2816 H   0  0  0  0  0  0  0  0  0  0  0  0
    5.3036    0.9189   -0.9134 H   0  0  0  0  0  0  0  0  0  0  0  0
    4.6545    1.7755    1.8154 H   0  0  0  0  0  0  0  0  0  0  0  0
    5.7455    0.5033    1.2022 H   0  0  0  0  0  0  0  0  0  0  0  0
    1.8701    0.4696    1.1044 H   0  0  0  0  0  0  0  0  0  0  0  0
    2.7419    1.4949    2.2418 H   0  0  0  0  0  0  0  0  0  0  0  0
    2.0267   -1.3484    2.8098 H   0  0  0  0  0  0  0  0  0  0  0  0
    1.0295    0.0750    3.2593 H   0  0  0  0  0  0  0  0  0  0  0  0
    4.5008   -0.1613    5.2500 H   0  0  0  0  0  0  0  0  0  0  0  0
    4.4839   -0.1546    3.4397 H   0  0  0  0  0  0  0  0  0  0  0  0
    4.0776   -2.4914    5.2100 H   0  0  0  0  0  0  0  0  0  0  0  0
    5.4738   -2.1039    4.1508 H   0  0  0  0  0  0  0  0  0  0  0  0
    1.7731   -3.0184    1.1406 H   0  0  0  0  0  0  0  0  0  0  0  0
    0.9018   -4.5927   -0.4984 H   0  0  0  0  0  0  0  0  0  0  0  0
    1.6421   -8.1260   -4.0167 H   0  0  0  0  0  0  0  0  0  0  0  0
    3.2680   -9.7130   -5.3705 H   0  0  0  0  0  0  0  0  0  0  0  0
    4.0295  -11.2247   -7.0325 H   0  0  0  0  0  0  0  0  0  0  0  0
    2.5519  -12.9370   -7.9780 H   0  0  0  0  0  0  0  0  0  0  0  0
    0.2937  -13.1534   -7.3172 H   0  0  0  0  0  0  0  0  0  0  0  0
   -1.5794   -9.7189   -4.6125 H   0  0  0  0  0  0  0  0  0  0  0  0
   -1.1047  -10.8670   -3.4156 H   0  0  0  0  0  0  0  0  0  0  0  0
    2.0107   -7.7923    1.9976 H   0  0  0  0  0  0  0  0  0  0  0  0
    3.6254   -5.7541    4.3845 H   0  0  0  0  0  0  0  0  0  0  0  0
    1.5855   -1.6157   -2.6910 H   0  0  0  0  0  0  0  0  0  0  0  0
    2.3313   -3.8792   -3.1059 H   0  0  0  0  0  0  0  0  0  0  0  0
    5.5395  -12.2603   -0.8620 H   0  0  0  0  0  0  0  0  0  0  0  0
    6.7642  -13.0330   -3.0327 H   0  0  0  0  0  0  0  0  0  0  0  0
    6.2926   -8.9251   -3.2012 H   0  0  0  0  0  0  0  0  0  0  0  0
    6.2613   -3.5868   -6.6755 H   0  0  0  0  0  0  0  0  0  0  0  0
    4.9254   -2.9093   -4.6226 H   0  0  0  0  0  0  0  0  0  0  0  0
    6.1063   -6.8632   -4.1214 H   0  0  0  0  0  0  0  0  0  0  0  0
    8.7687   -8.0717   -8.1788 H   0  0  0  0  0  0  0  0  0  0  0  0
    8.7167  -10.4834   -7.3202 H   0  0  0  0  0  0  0  0  0  0  0  0
    4.8345   -7.3270    1.2394 H   0  0  0  0  0  0  0  0  0  0  0  0
    4.5104   -4.9907    0.2344 H   0  0  0  0  0  0  0  0  0  0  0  0
    5.9156   -3.0504   -1.0873 H   0  0  0  0  0  0  0  0  0  0  0  0
    5.1478   -0.8105   -0.6351 H   0  0  0  0  0  0  0  0  0  0  0  0
  1  2  2  0  0  0  0
  2  3  1  0  0  0  0
  2 39  1  0  0  0  0
  3  4  1  0  0  0  0
  4  5  1  0  0  0  0
  4102  1  0  0  0  0
  4103  1  0  0  0  0
  5  6  1  0  0  0  0
  5104  1  0  0  0  0
  5105  1  0  0  0  0
  6  7  1  0  0  0  0
  7  8  1  0  0  0  0
  7106  1  0  0  0  0
  7107  1  0  0  0  0
  8  9  1  0  0  0  0
  8108  1  0  0  0  0
  8109  1  0  0  0  0
  9 10  1  0  0  0  0
 10 11  1  0  0  0  0
 10110  1  0  0  0  0
 10111  1  0  0  0  0
 11 12  1  0  0  0  0
 11112  1  0  0  0  0
 11113  1  0  0  0  0
 12 13  1  0  0  0  0
 13 14  2  0  0  0  0
 13 15  1  0  0  0  0
 15 16  1  0  0  0  0
 15 37  2  0  0  0  0
 16 17  2  0  0  0  0
 16114  1  0  0  0  0
 17 18  1  0  0  0  0
 17115  1  0  0  0  0
 18 19  1  0  0  0  0
 18 36  2  0  0  0  0
 19 20  1  0  0  0  0
 19 34  1  0  0  0  0
 20 21  2  0  0  0  0
 20 22  1  0  0  0  0
 22 23  2  0  0  0  0
 22 33  1  0  0  0  0
 23 24  1  0  0  0  0
 23116  1  0  0  0  0
 24 25  2  0  0  0  0
 24 32  1  0  0  0  0
 25 26  1  0  0  0  0
 25 30  1  0  0  0  0
 26 27  2  0  0  0  0
 26117  1  0  0  0  0
 27 28  1  0  0  0  0
 27118  1  0  0  0  0
 28 29  2  0  0  0  0
 28119  1  0  0  0  0
 29 30  1  0  0  0  0
 29120  1  0  0  0  0
 30 31  2  0  0  0  0
 31 32  1  0  0  0  0
 32121  1  0  0  0  0
 32122  1  0  0  0  0
 33 34  1  0  0  0  0
 34 35  2  0  0  0  0
 36 37  1  0  0  0  0
 36123  1  0  0  0  0
 37 38  1  0  0  0  0
 38124  1  0  0  0  0
 39 40  1  0  0  0  0
 39101  2  0  0  0  0
 40 41  2  0  0  0  0
 40125  1  0  0  0  0
 41 42  1  0  0  0  0
 41126  1  0  0  0  0
 42 43  1  0  0  0  0
 42100  2  0  0  0  0
 43 44  1  0  0  0  0
 43 94  2  0  0  0  0
 44 45  2  0  0  0  0
 44 99  1  0  0  0  0
 45 46  1  0  0  0  0
 46 47  2  0  0  0  0
 46 98  1  0  0  0  0
 47 48  1  0  0  0  0
 47 59  1  0  0  0  0
 48 49  1  0  0  0  0
 48 57  2  0  0  0  0
 49 50  1  0  0  0  0
 49 51  2  0  0  0  0
 51 52  1  0  0  0  0
 51 53  1  0  0  0  0
 53 54  1  0  0  0  0
 53 55  2  0  0  0  0
 55 56  1  0  0  0  0
 55 57  1  0  0  0  0
 57 58  1  0  0  0  0
 59 60  2  0  0  0  0
 59 63  1  0  0  0  0
 60 61  1  0  0  0  0
 60127  1  0  0  0  0
 61 62  2  0  0  0  0
 61128  1  0  0  0  0
 62 63  1  0  0  0  0
 62 64  1  0  0  0  0
 63129  1  0  0  0  0
 64 65  1  0  0  0  0
 64 76  2  0  0  0  0
 65 66  1  0  0  0  0
 65 74  2  0  0  0  0
 66 67  1  0  0  0  0
 66 68  2  0  0  0  0
 68 69  1  0  0  0  0
 68 70  1  0  0  0  0
 70 71  1  0  0  0  0
 70 72  2  0  0  0  0
 72 73  1  0  0  0  0
 72 74  1  0  0  0  0
 74 75  1  0  0  0  0
 76 77  1  0  0  0  0
 76 97  1  0  0  0  0
 77 78  2  0  0  0  0
 78 79  1  0  0  0  0
 78 96  1  0  0  0  0
 79 80  1  0  0  0  0
 79 91  2  0  0  0  0
 80 81  1  0  0  0  0
 80 89  2  0  0  0  0
 81 82  1  0  0  0  0
 81 83  2  0  0  0  0
 83 84  1  0  0  0  0
 83 85  1  0  0  0  0
 85 86  1  0  0  0  0
 85 87  2  0  0  0  0
 87 88  1  0  0  0  0
 87 89  1  0  0  0  0
 89 90  1  0  0  0  0
 91 92  1  0  0  0  0
 91 95  1  0  0  0  0
 92 93  2  0  0  0  0
 92130  1  0  0  0  0
 93 94  1  0  0  0  0
 93131  1  0  0  0  0
 94 95  1  0  0  0  0
 95132  1  0  0  0  0
 96 97  2  0  0  0  0
 96133  1  0  0  0  0
 97134  1  0  0  0  0
 98 99  2  0  0  0  0
 98135  1  0  0  0  0
 99136  1  0  0  0  0
100101  1  0  0  0  0
100137  1  0  0  0  0
101138  1  0  0  0  0
M  END
$$$$
