0_5_1208
 OpenBabel04152301363D

138147  0  0  0  0  0  0  0  0999 V2000
    1.0487    1.1954   -0.0796 C   0  0  0  0  0  0  0  0  0  0  0  0
    0.5596    1.5351    1.2542 N   0  3  0  0  0  0  0  0  0  0  0  0
   -0.9014    1.5599    1.2878 C   0  0  0  0  0  0  0  0  0  0  0  0
    1.1285    0.6663    2.2996 C   0  0  0  0  0  0  0  0  0  0  0  0
    0.8937   -0.8474    2.1493 C   0  0  0  0  0  0  0  0  0  0  0  0
    2.1054   -1.5929    1.8806 N   0  0  0  0  0  0  0  0  0  0  0  0
    2.3792   -2.8846    2.1011 C   0  0  0  0  0  0  0  0  0  0  0  0
    3.2029   -3.4491    1.3827 O   0  0  0  0  0  0  0  0  0  0  0  0
    1.7832   -3.6164    3.0630 N   0  0  0  0  0  0  0  0  0  0  0  0
    1.2563   -3.2609    4.4008 C   0  0  0  0  0  0  0  0  0  0  0  0
   -0.1649   -3.7977    4.6453 C   0  0  0  0  0  0  0  0  0  0  0  0
   -1.1966   -3.8454    3.5469 C   0  0  0  0  0  0  0  0  0  0  0  0
   -1.7980   -4.8795    3.2739 O   0  0  0  0  0  0  0  0  0  0  0  0
   -1.4604   -2.6372    2.9880 O   0  0  0  0  0  0  0  0  0  0  0  0
   -2.6090   -2.5636    2.1067 C   0  0  0  0  0  0  0  0  0  0  0  0
   -2.2617   -2.5678    0.6101 C   0  0  0  0  0  0  0  0  0  0  0  0
   -1.9972   -3.8737    0.0987 O   0  0  0  0  0  0  0  0  0  0  0  0
   -0.6579   -4.3089    0.3127 C   0  0  0  0  0  0  0  0  0  0  0  0
    0.2572   -3.9999   -0.8642 C   0  0  0  0  0  0  0  0  0  0  0  0
    0.4203   -2.5942   -1.0787 O   0  0  0  0  0  0  0  0  0  0  0  0
    0.8373   -2.2781   -2.4144 C   0  0  0  0  0  0  0  0  0  0  0  0
    2.2979   -2.6326   -2.7243 C   0  0  0  0  0  0  0  0  0  0  0  0
    2.4537   -4.0607   -2.7200 O   0  0  0  0  0  0  0  0  0  0  0  0
    3.4785   -4.5425   -1.9735 C   0  0  0  0  0  0  0  0  0  0  0  0
    4.4339   -3.9257   -1.5392 O   0  0  0  0  0  0  0  0  0  0  0  0
    3.1523   -5.9463   -1.6346 C   0  0  0  0  0  0  0  0  0  0  0  0
    3.2290   -6.3613   -0.2976 C   0  0  0  0  0  0  0  0  0  0  0  0
    2.8871   -7.6693    0.0537 C   0  0  0  0  0  0  0  0  0  0  0  0
    2.5068   -8.5756   -0.9434 C   0  0  0  0  0  0  0  0  0  0  0  0
    2.4454  -10.0297   -0.6693 C   0  0  0  0  0  0  0  0  0  0  0  0
    3.6661  -10.8462   -0.9851 C   0  0  0  0  0  0  0  0  0  0  0  0
    3.8155  -12.1444   -1.0252 N   0  0  0  0  0  0  0  0  0  0  0  0
    5.1320  -12.3552   -1.4116 C   0  0  0  0  0  0  0  0  0  0  0  0
    5.7809  -13.5298   -1.5844 C   0  0  0  0  0  0  0  0  0  0  0  0
    7.2074  -13.4647   -2.0400 C   0  0  0  0  0  0  0  0  0  0  0  0
    8.2324  -13.0223   -1.1907 C   0  0  0  0  0  0  0  0  0  0  0  0
    7.9480  -12.6147    0.0555 F   0  0  0  0  0  0  0  0  0  0  0  0
    9.5495  -12.9523   -1.6361 C   0  0  0  0  0  0  0  0  0  0  0  0
   10.5051  -12.4785   -0.8245 F   0  0  0  0  0  0  0  0  0  0  0  0
    9.8713  -13.3552   -2.9236 C   0  0  0  0  0  0  0  0  0  0  0  0
   11.1403  -13.2914   -3.3494 F   0  0  0  0  0  0  0  0  0  0  0  0
    8.8764  -13.8157   -3.7728 C   0  0  0  0  0  0  0  0  0  0  0  0
    9.1872  -14.2140   -5.0141 F   0  0  0  0  0  0  0  0  0  0  0  0
    7.5542  -13.8593   -3.3405 C   0  0  0  0  0  0  0  0  0  0  0  0
    6.6106  -14.2885   -4.1920 F   0  0  0  0  0  0  0  0  0  0  0  0
    5.1794  -14.8196   -1.3866 C   0  0  0  0  0  0  0  0  0  0  0  0
    5.7531  -16.0704   -1.5245 C   0  0  0  0  0  0  0  0  0  0  0  0
    4.7676  -17.0309   -1.2748 C   0  0  0  0  0  0  0  0  0  0  0  0
    3.5947  -16.3775   -0.9306 C   0  0  0  0  0  0  0  0  0  0  0  0
    3.8592  -15.0210   -1.0121 N   0  0  0  0  0  0  0  0  0  0  0  0
    2.3248  -16.9471   -0.5593 C   0  0  0  0  0  0  0  0  0  0  0  0
    2.2312  -18.4443   -0.5008 C   0  0  0  0  0  0  0  0  0  0  0  0
    1.5275  -19.1799   -1.4646 C   0  0  0  0  0  0  0  0  0  0  0  0
    0.8524  -18.5478   -2.4362 F   0  0  0  0  0  0  0  0  0  0  0  0
    1.4905  -20.5713   -1.4148 C   0  0  0  0  0  0  0  0  0  0  0  0
    0.7797  -21.2536   -2.3233 F   0  0  0  0  0  0  0  0  0  0  0  0
    2.1806  -21.2525   -0.4227 C   0  0  0  0  0  0  0  0  0  0  0  0
    2.1536  -22.5918   -0.3844 F   0  0  0  0  0  0  0  0  0  0  0  0
    2.8947  -20.5453    0.5321 C   0  0  0  0  0  0  0  0  0  0  0  0
    3.5748  -21.2015    1.4824 F   0  0  0  0  0  0  0  0  0  0  0  0
    2.9100  -19.1540    0.5024 C   0  0  0  0  0  0  0  0  0  0  0  0
    3.6055  -18.4971    1.4429 F   0  0  0  0  0  0  0  0  0  0  0  0
    1.2181  -16.2346   -0.2332 C   0  0  0  0  0  0  0  0  0  0  0  0
    1.0538  -14.8567   -0.1573 N   0  0  0  0  0  0  0  0  0  0  0  0
   -0.1934  -14.6586    0.1959 C   0  0  0  0  0  0  0  0  0  0  0  0
   -0.9194  -13.3610    0.4571 C   0  0  0  0  0  0  0  0  0  0  0  0
   -2.3551  -13.3678    0.8434 C   0  0  0  0  0  0  0  0  0  0  0  0
   -2.7615  -13.8584    2.0922 C   0  0  0  0  0  0  0  0  0  0  0  0
   -1.8488  -14.3279    2.9556 F   0  0  0  0  0  0  0  0  0  0  0  0
   -4.1101  -13.9203    2.4380 C   0  0  0  0  0  0  0  0  0  0  0  0
   -4.4736  -14.4440    3.6167 F   0  0  0  0  0  0  0  0  0  0  0  0
   -5.0767  -13.4653    1.5542 C   0  0  0  0  0  0  0  0  0  0  0  0
   -6.3736  -13.5295    1.8854 F   0  0  0  0  0  0  0  0  0  0  0  0
   -4.6977  -12.9577    0.3206 C   0  0  0  0  0  0  0  0  0  0  0  0
   -5.6288  -12.5133   -0.5345 F   0  0  0  0  0  0  0  0  0  0  0  0
   -3.3512  -12.9208   -0.0369 C   0  0  0  0  0  0  0  0  0  0  0  0
   -3.0167  -12.4509   -1.2476 F   0  0  0  0  0  0  0  0  0  0  0  0
   -0.2595  -12.1938    0.3204 C   0  0  0  0  0  0  0  0  0  0  0  0
   -0.8267  -10.8572    0.4985 C   0  0  0  0  0  0  0  0  0  0  0  0
    0.0941   -9.9373    0.1572 C   0  0  0  0  0  0  0  0  0  0  0  0
    1.3258  -10.6229   -0.2228 C   0  0  0  0  0  0  0  0  0  0  0  0
    1.0423  -11.9550   -0.0447 N   0  0  0  0  0  0  0  0  0  0  0  0
   -0.9723  -15.8971    0.3487 C   0  0  0  0  0  0  0  0  0  0  0  0
   -0.0562  -16.8263    0.1148 C   0  0  0  0  0  0  0  0  0  0  0  0
    5.7342  -11.0559   -1.6124 C   0  0  0  0  0  0  0  0  0  0  0  0
    4.8820  -10.0865   -1.3209 C   0  0  0  0  0  0  0  0  0  0  0  0
    2.3977   -8.1435   -2.2773 C   0  0  0  0  0  0  0  0  0  0  0  0
    2.7176   -6.8316   -2.6232 C   0  0  0  0  0  0  0  0  0  0  0  0
    2.2460   -3.8742    5.4794 C   0  0  0  0  0  0  0  0  0  0  0  0
    2.0673   -2.6043    6.3149 C   0  0  0  0  0  0  0  0  0  0  0  0
    1.6786   -1.8819    5.0186 C   0  0  0  0  0  0  0  0  0  0  0  0
    0.6074    1.8527   -0.7994 H   0  0  0  0  0  0  0  0  0  0  0  0
    0.7837    0.1846   -0.3099 H   0  0  0  0  0  0  0  0  0  0  0  0
    2.1132    1.3000   -0.1065 H   0  0  0  0  0  0  0  0  0  0  0  0
    0.8859    2.4780    1.4658 H   0  0  0  0  0  0  0  0  0  0  0  0
   -1.2798    0.5832    1.0694 H   0  0  0  0  0  0  0  0  0  0  0  0
   -1.2632    2.2539    0.5582 H   0  0  0  0  0  0  0  0  0  0  0  0
   -1.2307    1.8607    2.2604 H   0  0  0  0  0  0  0  0  0  0  0  0
    0.7066    0.9677    3.2356 H   0  0  0  0  0  0  0  0  0  0  0  0
    2.1881    0.7937    2.2227 H   0  0  0  0  0  0  0  0  0  0  0  0
    0.2113   -1.0062    1.3406 H   0  0  0  0  0  0  0  0  0  0  0  0
    0.5052   -1.2011    3.0814 H   0  0  0  0  0  0  0  0  0  0  0  0
    2.8365   -1.0726    1.4756 H   0  0  0  0  0  0  0  0  0  0  0  0
    1.6781   -4.5678    2.8328 H   0  0  0  0  0  0  0  0  0  0  0  0
   -0.5834   -3.1956    5.4245 H   0  0  0  0  0  0  0  0  0  0  0  0
    0.0142   -4.8358    4.8331 H   0  0  0  0  0  0  0  0  0  0  0  0
   -3.1406   -1.6609    2.3244 H   0  0  0  0  0  0  0  0  0  0  0  0
   -3.1899   -3.4437    2.2879 H   0  0  0  0  0  0  0  0  0  0  0  0
   -1.3928   -1.9615    0.4608 H   0  0  0  0  0  0  0  0  0  0  0  0
   -3.1124   -2.1866    0.0849 H   0  0  0  0  0  0  0  0  0  0  0  0
   -0.6635   -5.3668    0.4730 H   0  0  0  0  0  0  0  0  0  0  0  0
   -0.2792   -3.7810    1.1629 H   0  0  0  0  0  0  0  0  0  0  0  0
   -0.1612   -4.4353   -1.7475 H   0  0  0  0  0  0  0  0  0  0  0  0
    1.2209   -4.4084   -0.6421 H   0  0  0  0  0  0  0  0  0  0  0  0
    0.7092   -1.2265   -2.5647 H   0  0  0  0  0  0  0  0  0  0  0  0
    0.2340   -2.8703   -3.0704 H   0  0  0  0  0  0  0  0  0  0  0  0
    2.9353   -2.2017   -1.9807 H   0  0  0  0  0  0  0  0  0  0  0  0
    2.5627   -2.2471   -3.6867 H   0  0  0  0  0  0  0  0  0  0  0  0
    3.5392   -5.6980    0.4296 H   0  0  0  0  0  0  0  0  0  0  0  0
    2.9146   -7.9657    1.0418 H   0  0  0  0  0  0  0  0  0  0  0  0
    6.7373  -16.2618   -1.7691 H   0  0  0  0  0  0  0  0  0  0  0  0
    4.8926  -18.0534   -1.3364 H   0  0  0  0  0  0  0  0  0  0  0  0
    3.2073  -14.3058   -0.8312 H   0  0  0  0  0  0  0  0  0  0  0  0
   -1.7813  -10.6524    0.8328 H   0  0  0  0  0  0  0  0  0  0  0  0
   -0.0471   -8.9150    0.1631 H   0  0  0  0  0  0  0  0  0  0  0  0
    1.7083  -12.6696   -0.1670 H   0  0  0  0  0  0  0  0  0  0  0  0
   -1.9718  -16.0126    0.5782 H   0  0  0  0  0  0  0  0  0  0  0  0
   -0.2295  -17.8420    0.1734 H   0  0  0  0  0  0  0  0  0  0  0  0
    6.7011  -10.9046   -1.9399 H   0  0  0  0  0  0  0  0  0  0  0  0
    5.0306   -9.0653   -1.3272 H   0  0  0  0  0  0  0  0  0  0  0  0
    2.0787   -8.8021   -3.0049 H   0  0  0  0  0  0  0  0  0  0  0  0
    2.6338   -6.5170   -3.6025 H   0  0  0  0  0  0  0  0  0  0  0  0
    3.2429   -4.0328    5.1245 H   0  0  0  0  0  0  0  0  0  0  0  0
    2.0726   -4.8421    5.9012 H   0  0  0  0  0  0  0  0  0  0  0  0
    2.9636   -2.2435    6.7747 H   0  0  0  0  0  0  0  0  0  0  0  0
    1.4369   -2.5849    7.1793 H   0  0  0  0  0  0  0  0  0  0  0  0
    0.8745   -1.1845    5.1281 H   0  0  0  0  0  0  0  0  0  0  0  0
    2.3768   -1.2466    4.5148 H   0  0  0  0  0  0  0  0  0  0  0  0
  1  2  1  0  0  0  0
  1 92  1  0  0  0  0
  1 93  1  0  0  0  0
  1 94  1  0  0  0  0
  2  3  1  0  0  0  0
  2  4  1  0  0  0  0
  2 95  1  0  0  0  0
  3 96  1  0  0  0  0
  3 97  1  0  0  0  0
  3 98  1  0  0  0  0
  4  5  1  0  0  0  0
  4 99  1  0  0  0  0
  4100  1  0  0  0  0
  5  6  1  0  0  0  0
  5101  1  0  0  0  0
  5102  1  0  0  0  0
  6  7  1  0  0  0  0
  6103  1  0  0  0  0
  7  8  2  0  0  0  0
  7  9  1  0  0  0  0
  9 10  1  0  0  0  0
  9104  1  0  0  0  0
 10 11  1  0  0  0  0
 10 89  1  0  0  0  0
 10 91  1  0  0  0  0
 11 12  1  0  0  0  0
 11105  1  0  0  0  0
 11106  1  0  0  0  0
 12 13  2  0  0  0  0
 12 14  1  0  0  0  0
 14 15  1  0  0  0  0
 15 16  1  0  0  0  0
 15107  1  0  0  0  0
 15108  1  0  0  0  0
 16 17  1  0  0  0  0
 16109  1  0  0  0  0
 16110  1  0  0  0  0
 17 18  1  0  0  0  0
 18 19  1  0  0  0  0
 18111  1  0  0  0  0
 18112  1  0  0  0  0
 19 20  1  0  0  0  0
 19113  1  0  0  0  0
 19114  1  0  0  0  0
 20 21  1  0  0  0  0
 21 22  1  0  0  0  0
 21115  1  0  0  0  0
 21116  1  0  0  0  0
 22 23  1  0  0  0  0
 22117  1  0  0  0  0
 22118  1  0  0  0  0
 23 24  1  0  0  0  0
 24 25  2  0  0  0  0
 24 26  1  0  0  0  0
 26 27  1  0  0  0  0
 26 88  2  0  0  0  0
 27 28  2  0  0  0  0
 27119  1  0  0  0  0
 28 29  1  0  0  0  0
 28120  1  0  0  0  0
 29 30  1  0  0  0  0
 29 87  2  0  0  0  0
 30 31  1  0  0  0  0
 30 81  2  0  0  0  0
 31 32  2  0  0  0  0
 31 86  1  0  0  0  0
 32 33  1  0  0  0  0
 33 34  2  0  0  0  0
 33 85  1  0  0  0  0
 34 35  1  0  0  0  0
 34 46  1  0  0  0  0
 35 36  1  0  0  0  0
 35 44  2  0  0  0  0
 36 37  1  0  0  0  0
 36 38  2  0  0  0  0
 38 39  1  0  0  0  0
 38 40  1  0  0  0  0
 40 41  1  0  0  0  0
 40 42  2  0  0  0  0
 42 43  1  0  0  0  0
 42 44  1  0  0  0  0
 44 45  1  0  0  0  0
 46 47  2  0  0  0  0
 46 50  1  0  0  0  0
 47 48  1  0  0  0  0
 47121  1  0  0  0  0
 48 49  2  0  0  0  0
 48122  1  0  0  0  0
 49 50  1  0  0  0  0
 49 51  1  0  0  0  0
 50123  1  0  0  0  0
 51 52  1  0  0  0  0
 51 63  2  0  0  0  0
 52 53  1  0  0  0  0
 52 61  2  0  0  0  0
 53 54  1  0  0  0  0
 53 55  2  0  0  0  0
 55 56  1  0  0  0  0
 55 57  1  0  0  0  0
 57 58  1  0  0  0  0
 57 59  2  0  0  0  0
 59 60  1  0  0  0  0
 59 61  1  0  0  0  0
 61 62  1  0  0  0  0
 63 64  1  0  0  0  0
 63 84  1  0  0  0  0
 64 65  2  0  0  0  0
 65 66  1  0  0  0  0
 65 83  1  0  0  0  0
 66 67  1  0  0  0  0
 66 78  2  0  0  0  0
 67 68  1  0  0  0  0
 67 76  2  0  0  0  0
 68 69  1  0  0  0  0
 68 70  2  0  0  0  0
 70 71  1  0  0  0  0
 70 72  1  0  0  0  0
 72 73  1  0  0  0  0
 72 74  2  0  0  0  0
 74 75  1  0  0  0  0
 74 76  1  0  0  0  0
 76 77  1  0  0  0  0
 78 79  1  0  0  0  0
 78 82  1  0  0  0  0
 79 80  2  0  0  0  0
 79124  1  0  0  0  0
 80 81  1  0  0  0  0
 80125  1  0  0  0  0
 81 82  1  0  0  0  0
 82126  1  0  0  0  0
 83 84  2  0  0  0  0
 83127  1  0  0  0  0
 84128  1  0  0  0  0
 85 86  2  0  0  0  0
 85129  1  0  0  0  0
 86130  1  0  0  0  0
 87 88  1  0  0  0  0
 87131  1  0  0  0  0
 88132  1  0  0  0  0
 89 90  1  0  0  0  0
 89133  1  0  0  0  0
 89134  1  0  0  0  0
 90 91  1  0  0  0  0
 90135  1  0  0  0  0
 90136  1  0  0  0  0
 91137  1  0  0  0  0
 91138  1  0  0  0  0
M  CHG  1   2   1
M  END
$$$$
