0_5_5552
 OpenBabel04152301373D

120129  0  0  1  0  0  0  0  0999 V2000
    6.8588    1.6796   -3.3846 O   0  0  0  0  0  0  0  0  0  0  0  0
    6.3501    1.3625   -4.4599 C   0  0  0  0  0  0  0  0  0  0  0  0
    7.1622    0.8399   -5.4088 O   0  0  0  0  0  0  0  0  0  0  0  0
    6.8820    0.4652   -6.7664 C   0  0  0  0  0  0  0  0  0  0  0  0
    6.3552   -0.9705   -6.9394 C   0  0  0  0  0  0  0  0  0  0  0  0
    5.6972   -1.5509   -5.8065 O   0  0  0  0  0  0  0  0  0  0  0  0
    6.5956   -1.8711   -4.7327 C   0  0  0  0  0  0  0  0  0  0  0  0
    6.3239   -3.2347   -4.0952 C   0  0  0  0  0  0  0  0  0  0  0  0
    6.6785   -4.3888   -4.8533 O   0  0  0  0  0  0  0  0  0  0  0  0
    6.1793   -4.4970   -6.1790 C   0  0  0  0  0  0  0  0  0  0  0  0
    4.6928   -4.8189   -6.3541 C   0  0  0  0  0  0  0  0  0  0  0  0
    3.8225   -4.0154   -5.5538 O   0  0  0  0  0  0  0  0  0  0  0  0
    3.3243   -4.6169   -4.4336 C   0  0  0  0  0  0  0  0  0  0  0  0
    3.5782   -5.7577   -4.0803 O   0  0  0  0  0  0  0  0  0  0  0  0
    2.3381   -3.7001   -3.6886 C   0  0  1  0  0  0  0  0  0  0  0  0
    2.4858   -2.2053   -3.9148 C   0  0  0  0  0  0  0  0  0  0  0  0
    1.7470   -1.9696   -5.2197 C   0  0  0  0  0  0  0  0  0  0  0  0
    0.6671   -3.0489   -5.2612 C   0  0  1  0  0  0  0  0  0  0  0  0
    0.5626   -3.6661   -6.6651 C   0  0  0  0  0  0  0  0  0  0  0  0
   -0.2978   -4.7146   -6.6583 F   0  0  0  0  0  0  0  0  0  0  0  0
    0.0278   -2.7430   -7.5103 F   0  0  0  0  0  0  0  0  0  0  0  0
    0.9587   -3.9841   -4.1443 N   0  3  0  0  0  0  0  0  0  0  0  0
    4.8669    1.5451   -4.5983 C   0  0  0  0  0  0  0  0  0  0  0  0
    4.0851    1.1130   -5.6676 C   0  0  0  0  0  0  0  0  0  0  0  0
    2.7148    1.3511   -5.7057 C   0  0  0  0  0  0  0  0  0  0  0  0
    2.0824    2.0295   -4.6627 C   0  0  0  0  0  0  0  0  0  0  0  0
    0.6928    2.4638   -4.8984 C   0  0  0  0  0  0  0  0  0  0  0  0
    0.4979    3.7262   -5.6690 C   0  0  0  0  0  0  0  0  0  0  0  0
   -0.6073    4.2734   -6.0896 N   0  0  0  0  0  0  0  0  0  0  0  0
   -0.2265    5.4794   -6.6555 C   0  0  0  0  0  0  0  0  0  0  0  0
   -1.0328    6.4563   -7.1271 C   0  0  0  0  0  0  0  0  0  0  0  0
   -0.3702    7.7500   -7.4979 C   0  0  0  0  0  0  0  0  0  0  0  0
    0.4871    7.8705   -8.6019 C   0  0  0  0  0  0  0  0  0  0  0  0
    0.7046    6.8185   -9.4061 F   0  0  0  0  0  0  0  0  0  0  0  0
    1.2007    9.0460   -8.8290 C   0  0  0  0  0  0  0  0  0  0  0  0
    2.0841    9.1071   -9.8353 F   0  0  0  0  0  0  0  0  0  0  0  0
    1.0354   10.1364   -7.9879 C   0  0  0  0  0  0  0  0  0  0  0  0
    1.7377   11.2586   -8.1962 F   0  0  0  0  0  0  0  0  0  0  0  0
    0.1612   10.0540   -6.9158 C   0  0  0  0  0  0  0  0  0  0  0  0
   -0.0011   11.1054   -6.1008 F   0  0  0  0  0  0  0  0  0  0  0  0
   -0.5249    8.8697   -6.6648 C   0  0  0  0  0  0  0  0  0  0  0  0
   -1.3185    8.8054   -5.5851 F   0  0  0  0  0  0  0  0  0  0  0  0
   -2.4661    6.3441   -7.1421 C   0  0  0  0  0  0  0  0  0  0  0  0
   -3.4053    7.2828   -7.5193 C   0  0  0  0  0  0  0  0  0  0  0  0
   -4.6740    6.7364   -7.2939 C   0  0  0  0  0  0  0  0  0  0  0  0
   -4.5277    5.4298   -6.8479 C   0  0  0  0  0  0  0  0  0  0  0  0
   -3.1662    5.2089   -6.7436 N   0  0  0  0  0  0  0  0  0  0  0  0
   -5.5594    4.4625   -6.5567 C   0  0  0  0  0  0  0  0  0  0  0  0
   -6.9771    4.9006   -6.7684 C   0  0  0  0  0  0  0  0  0  0  0  0
   -7.8317    5.1667   -5.6886 C   0  0  0  0  0  0  0  0  0  0  0  0
   -7.4173    4.9564   -4.4299 F   0  0  0  0  0  0  0  0  0  0  0  0
   -9.1279    5.6244   -5.9033 C   0  0  0  0  0  0  0  0  0  0  0  0
   -9.9430    5.8362   -4.8608 F   0  0  0  0  0  0  0  0  0  0  0  0
   -9.5790    5.8557   -7.1947 C   0  0  0  0  0  0  0  0  0  0  0  0
  -10.8221    6.3120   -7.3991 F   0  0  0  0  0  0  0  0  0  0  0  0
   -8.7441    5.6111   -8.2749 C   0  0  0  0  0  0  0  0  0  0  0  0
   -9.1720    5.8509   -9.5217 F   0  0  0  0  0  0  0  0  0  0  0  0
   -7.4591    5.1234   -8.0659 C   0  0  0  0  0  0  0  0  0  0  0  0
   -6.6732    4.8911   -9.1280 F   0  0  0  0  0  0  0  0  0  0  0  0
   -5.3714    3.1918   -6.1199 C   0  0  0  0  0  0  0  0  0  0  0  0
   -4.1912    2.5400   -5.7992 N   0  0  0  0  0  0  0  0  0  0  0  0
   -4.5401    1.3621   -5.3342 C   0  0  0  0  0  0  0  0  0  0  0  0
   -3.6668    0.2840   -4.7453 C   0  0  0  0  0  0  0  0  0  0  0  0
   -4.2195   -1.0345   -4.3134 C   0  0  0  0  0  0  0  0  0  0  0  0
   -4.8100   -1.9205   -5.2287 C   0  0  0  0  0  0  0  0  0  0  0  0
   -4.9383   -1.5672   -6.5162 F   0  0  0  0  0  0  0  0  0  0  0  0
   -5.3029   -3.1640   -4.8236 C   0  0  0  0  0  0  0  0  0  0  0  0
   -5.9034   -3.9681   -5.7118 F   0  0  0  0  0  0  0  0  0  0  0  0
   -5.1836   -3.5655   -3.5021 C   0  0  0  0  0  0  0  0  0  0  0  0
   -5.6334   -4.7672   -3.1162 F   0  0  0  0  0  0  0  0  0  0  0  0
   -4.6059   -2.7114   -2.5785 C   0  0  0  0  0  0  0  0  0  0  0  0
   -4.4670   -3.0959   -1.3023 F   0  0  0  0  0  0  0  0  0  0  0  0
   -4.1590   -1.4518   -2.9737 C   0  0  0  0  0  0  0  0  0  0  0  0
   -3.6340   -0.6432   -2.0410 F   0  0  0  0  0  0  0  0  0  0  0  0
   -2.3686    0.5934   -4.5510 C   0  0  0  0  0  0  0  0  0  0  0  0
   -1.3818   -0.2307   -3.8630 C   0  0  0  0  0  0  0  0  0  0  0  0
   -0.2163    0.4318   -3.8190 C   0  0  0  0  0  0  0  0  0  0  0  0
   -0.3386    1.6660   -4.5785 C   0  0  0  0  0  0  0  0  0  0  0  0
   -1.6675    1.7248   -4.9041 N   0  0  0  0  0  0  0  0  0  0  0  0
   -5.9859    1.1135   -5.3510 C   0  0  0  0  0  0  0  0  0  0  0  0
   -6.4447    2.2511   -5.8561 C   0  0  0  0  0  0  0  0  0  0  0  0
    1.2146    5.5575   -6.5821 C   0  0  0  0  0  0  0  0  0  0  0  0
    1.7167    4.4878   -5.9895 C   0  0  0  0  0  0  0  0  0  0  0  0
    2.8255    2.4348   -3.5571 C   0  0  0  0  0  0  0  0  0  0  0  0
    4.2051    2.1939   -3.5322 C   0  0  0  0  0  0  0  0  0  0  0  0
    7.7855    0.5595   -7.3319 H   0  0  0  0  0  0  0  0  0  0  0  0
    6.1041    1.1165   -7.1062 H   0  0  0  0  0  0  0  0  0  0  0  0
    7.1882   -1.5949   -7.1866 H   0  0  0  0  0  0  0  0  0  0  0  0
    5.6058   -0.9074   -7.7005 H   0  0  0  0  0  0  0  0  0  0  0  0
    6.5017   -1.1193   -3.9771 H   0  0  0  0  0  0  0  0  0  0  0  0
    7.5811   -1.9088   -5.1478 H   0  0  0  0  0  0  0  0  0  0  0  0
    5.2749   -3.2923   -3.8923 H   0  0  0  0  0  0  0  0  0  0  0  0
    6.9545   -3.2667   -3.2314 H   0  0  0  0  0  0  0  0  0  0  0  0
    6.7338   -5.2709   -6.6674 H   0  0  0  0  0  0  0  0  0  0  0  0
    6.2951   -3.5172   -6.5931 H   0  0  0  0  0  0  0  0  0  0  0  0
    4.5382   -5.8448   -6.0922 H   0  0  0  0  0  0  0  0  0  0  0  0
    4.4509   -4.6117   -7.3756 H   0  0  0  0  0  0  0  0  0  0  0  0
    2.5496   -3.9145   -2.6618 H   0  0  0  0  0  0  0  0  0  0  0  0
    3.5165   -1.9320   -4.0041 H   0  0  0  0  0  0  0  0  0  0  0  0
    2.0994   -1.6212   -3.1058 H   0  0  0  0  0  0  0  0  0  0  0  0
    2.4118   -2.0702   -6.0521 H   0  0  0  0  0  0  0  0  0  0  0  0
    1.3337   -0.9843   -5.2760 H   0  0  0  0  0  0  0  0  0  0  0  0
   -0.3193   -2.6659   -5.1026 H   0  0  0  0  0  0  0  0  0  0  0  0
    1.5401   -3.9786   -6.9681 H   0  0  0  0  0  0  0  0  0  0  0  0
    0.2997   -3.8333   -3.3805 H   0  0  0  0  0  0  0  0  0  0  0  0
    0.8691   -4.9533   -4.4492 H   0  0  0  0  0  0  0  0  0  0  0  0
    4.5317    0.6058   -6.4476 H   0  0  0  0  0  0  0  0  0  0  0  0
    2.1610    1.0231   -6.5124 H   0  0  0  0  0  0  0  0  0  0  0  0
   -3.2071    8.2213   -7.9001 H   0  0  0  0  0  0  0  0  0  0  0  0
   -5.5718    7.2251   -7.4360 H   0  0  0  0  0  0  0  0  0  0  0  0
   -2.7527    4.3712   -6.4329 H   0  0  0  0  0  0  0  0  0  0  0  0
   -1.5524   -1.1709   -3.4732 H   0  0  0  0  0  0  0  0  0  0  0  0
    0.6326    0.1158   -3.3246 H   0  0  0  0  0  0  0  0  0  0  0  0
   -2.0813    2.5004   -5.3474 H   0  0  0  0  0  0  0  0  0  0  0  0
   -6.5077    0.2757   -5.0497 H   0  0  0  0  0  0  0  0  0  0  0  0
   -7.4420    2.4435   -6.0390 H   0  0  0  0  0  0  0  0  0  0  0  0
    1.7768    6.3436   -6.9441 H   0  0  0  0  0  0  0  0  0  0  0  0
    2.7029    4.2493   -5.8011 H   0  0  0  0  0  0  0  0  0  0  0  0
    2.3645    2.9078   -2.7642 H   0  0  0  0  0  0  0  0  0  0  0  0
    4.7531    2.4987   -2.7126 H   0  0  0  0  0  0  0  0  0  0  0  0
  1  2  2  0  0  0  0
  2  3  1  0  0  0  0
  2 23  1  0  0  0  0
  3  4  1  0  0  0  0
  4  5  1  0  0  0  0
  4 86  1  0  0  0  0
  4 87  1  0  0  0  0
  5  6  1  0  0  0  0
  5 88  1  0  0  0  0
  5 89  1  0  0  0  0
  6  7  1  0  0  0  0
  7  8  1  0  0  0  0
  7 90  1  0  0  0  0
  7 91  1  0  0  0  0
  8  9  1  0  0  0  0
  8 92  1  0  0  0  0
  8 93  1  0  0  0  0
  9 10  1  0  0  0  0
 10 11  1  0  0  0  0
 10 94  1  0  0  0  0
 10 95  1  0  0  0  0
 11 12  1  0  0  0  0
 11 96  1  0  0  0  0
 11 97  1  0  0  0  0
 12 13  1  0  0  0  0
 13 14  2  0  0  0  0
 15 16  1  0  0  0  0
 15 22  1  0  0  0  0
 15 13  1  0  0  0  0
 15 98  1  1  0  0  0
 16 17  1  0  0  0  0
 16 99  1  0  0  0  0
 16100  1  0  0  0  0
 17 18  1  0  0  0  0
 17101  1  0  0  0  0
 17102  1  0  0  0  0
 18 22  1  0  0  0  0
 18 19  1  0  0  0  0
 18103  1  1  0  0  0
 19 20  1  0  0  0  0
 19 21  1  0  0  0  0
 19104  1  0  0  0  0
 22105  1  0  0  0  0
 22106  1  0  0  0  0
 23 24  1  0  0  0  0
 23 85  2  0  0  0  0
 24 25  2  0  0  0  0
 24107  1  0  0  0  0
 25 26  1  0  0  0  0
 25108  1  0  0  0  0
 26 27  1  0  0  0  0
 26 84  2  0  0  0  0
 27 28  1  0  0  0  0
 27 78  2  0  0  0  0
 28 29  2  0  0  0  0
 28 83  1  0  0  0  0
 29 30  1  0  0  0  0
 30 31  2  0  0  0  0
 30 82  1  0  0  0  0
 31 32  1  0  0  0  0
 31 43  1  0  0  0  0
 32 33  1  0  0  0  0
 32 41  2  0  0  0  0
 33 34  1  0  0  0  0
 33 35  2  0  0  0  0
 35 36  1  0  0  0  0
 35 37  1  0  0  0  0
 37 38  1  0  0  0  0
 37 39  2  0  0  0  0
 39 40  1  0  0  0  0
 39 41  1  0  0  0  0
 41 42  1  0  0  0  0
 43 44  2  0  0  0  0
 43 47  1  0  0  0  0
 44 45  1  0  0  0  0
 44109  1  0  0  0  0
 45 46  2  0  0  0  0
 45110  1  0  0  0  0
 46 47  1  0  0  0  0
 46 48  1  0  0  0  0
 47111  1  0  0  0  0
 48 49  1  0  0  0  0
 48 60  2  0  0  0  0
 49 50  1  0  0  0  0
 49 58  2  0  0  0  0
 50 51  1  0  0  0  0
 50 52  2  0  0  0  0
 52 53  1  0  0  0  0
 52 54  1  0  0  0  0
 54 55  1  0  0  0  0
 54 56  2  0  0  0  0
 56 57  1  0  0  0  0
 56 58  1  0  0  0  0
 58 59  1  0  0  0  0
 60 61  1  0  0  0  0
 60 81  1  0  0  0  0
 61 62  2  0  0  0  0
 62 63  1  0  0  0  0
 62 80  1  0  0  0  0
 63 64  1  0  0  0  0
 63 75  2  0  0  0  0
 64 65  1  0  0  0  0
 64 73  2  0  0  0  0
 65 66  1  0  0  0  0
 65 67  2  0  0  0  0
 67 68  1  0  0  0  0
 67 69  1  0  0  0  0
 69 70  1  0  0  0  0
 69 71  2  0  0  0  0
 71 72  1  0  0  0  0
 71 73  1  0  0  0  0
 73 74  1  0  0  0  0
 75 76  1  0  0  0  0
 75 79  1  0  0  0  0
 76 77  2  0  0  0  0
 76112  1  0  0  0  0
 77 78  1  0  0  0  0
 77113  1  0  0  0  0
 78 79  1  0  0  0  0
 79114  1  0  0  0  0
 80 81  2  0  0  0  0
 80115  1  0  0  0  0
 81116  1  0  0  0  0
 82 83  2  0  0  0  0
 82117  1  0  0  0  0
 83118  1  0  0  0  0
 84 85  1  0  0  0  0
 84119  1  0  0  0  0
 85120  1  0  0  0  0
M  CHG  1  22   1
M  END
$$$$
