0_5_2352
 OpenBabel04152301353D

152163  0  0  1  0  0  0  0  0999 V2000
   -0.1123    0.2206   -2.4819 C   0  0  0  0  0  0  0  0  0  0  0  0
   -0.0452    1.7273   -2.1548 C   0  0  1  0  0  0  0  0  0  0  0  0
    1.0742    1.9617   -1.1176 C   0  0  1  0  0  0  0  0  0  0  0  0
    2.5177    1.7541   -1.6001 C   0  0  0  0  0  0  0  0  0  0  0  0
    3.3978    2.6159   -0.7432 C   0  0  0  0  0  0  0  0  0  0  0  0
    2.7780    3.5739   -0.0480 C   0  0  0  0  0  0  0  0  0  0  0  0
    1.0659    3.6008   -0.2806 S   0  0  0  0  0  0  0  0  0  0  0  0
   -0.0082    2.5441   -3.3692 N   0  0  0  0  0  0  0  0  0  0  0  0
    0.2902    1.9608   -4.5530 N   0  0  0  0  0  0  0  0  0  0  0  0
   -0.1497    2.8269   -5.4646 C   0  0  0  0  0  0  0  0  0  0  0  0
   -0.6239    4.0143   -4.8814 C   0  0  0  0  0  0  0  0  0  0  0  0
   -0.3827    3.8666   -3.5346 C   0  0  0  0  0  0  0  0  0  0  0  0
   -0.5270    4.8156   -2.5459 N   0  0  0  0  0  0  0  0  0  0  0  0
   -0.1687    6.2020   -2.6011 C   0  0  0  0  0  0  0  0  0  0  0  0
   -0.4001    6.8122   -1.5643 O   0  0  0  0  0  0  0  0  0  0  0  0
    0.5476    6.8475   -3.7695 C   0  0  0  0  0  0  0  0  0  0  0  0
    2.1156    6.7470   -3.8695 C   0  0  0  0  0  0  0  0  0  0  0  0
    2.8495    6.9056   -2.4925 C   0  0  0  0  0  0  0  0  0  0  0  0
    3.6574    8.1040   -1.9932 C   0  0  0  0  0  0  0  0  0  0  0  0
    4.5973    7.9216   -1.2228 O   0  0  0  0  0  0  0  0  0  0  0  0
    3.1907    9.3283   -2.3334 O   0  0  0  0  0  0  0  0  0  0  0  0
    3.8689   10.4520   -1.7130 C   0  0  0  0  0  0  0  0  0  0  0  0
    2.9373   11.5053   -1.0986 C   0  0  0  0  0  0  0  0  0  0  0  0
    2.0782   11.0771   -0.0474 O   0  0  0  0  0  0  0  0  0  0  0  0
    1.1941    9.9908   -0.2800 C   0  0  0  0  0  0  0  0  0  0  0  0
    0.4833    9.8808   -1.6348 C   0  0  0  0  0  0  0  0  0  0  0  0
    0.5856   11.0502   -2.4283 O   0  0  0  0  0  0  0  0  0  0  0  0
   -0.0370   11.0080   -3.7064 C   0  0  0  0  0  0  0  0  0  0  0  0
   -1.4010   11.6595   -3.6006 C   0  0  0  0  0  0  0  0  0  0  0  0
   -2.2529   10.9990   -2.6756 O   0  0  0  0  0  0  0  0  0  0  0  0
   -2.5337    9.6953   -2.8130 C   0  0  0  0  0  0  0  0  0  0  0  0
   -2.1154    8.9074   -3.6665 O   0  0  0  0  0  0  0  0  0  0  0  0
   -3.5213    9.3736   -1.7809 C   0  0  0  0  0  0  0  0  0  0  0  0
   -4.2126    8.1668   -1.8842 C   0  0  0  0  0  0  0  0  0  0  0  0
   -5.3986    8.0281   -1.1933 C   0  0  0  0  0  0  0  0  0  0  0  0
   -5.8534    9.1052   -0.4276 C   0  0  0  0  0  0  0  0  0  0  0  0
   -7.1516    9.0281    0.2043 C   0  0  0  0  0  0  0  0  0  0  0  0
   -7.1711    8.2494    1.4642 C   0  0  0  0  0  0  0  0  0  0  0  0
   -7.9939    7.3182    1.8153 N   0  0  0  0  0  0  0  0  0  0  0  0
   -7.6389    6.9825    3.1187 C   0  0  0  0  0  0  0  0  0  0  0  0
   -8.5478    6.4428    3.9697 C   0  0  0  0  0  0  0  0  0  0  0  0
   -8.6734    6.8693    5.4144 C   0  0  0  0  0  0  0  0  0  0  0  0
   -9.5764    6.1840    6.2491 C   0  0  0  0  0  0  0  0  0  0  0  0
  -10.1140    5.0186    5.8591 F   0  0  0  0  0  0  0  0  0  0  0  0
  -10.0255    6.7290    7.4548 C   0  0  0  0  0  0  0  0  0  0  0  0
  -10.9870    6.1043    8.1472 F   0  0  0  0  0  0  0  0  0  0  0  0
   -9.5409    7.9447    7.9016 C   0  0  0  0  0  0  0  0  0  0  0  0
  -10.0187    8.4991    9.0227 F   0  0  0  0  0  0  0  0  0  0  0  0
   -8.5969    8.6106    7.1515 C   0  0  0  0  0  0  0  0  0  0  0  0
   -8.1274    9.7993    7.5567 F   0  0  0  0  0  0  0  0  0  0  0  0
   -8.1898    8.0979    5.9218 C   0  0  0  0  0  0  0  0  0  0  0  0
   -7.3972    8.9069    5.2092 F   0  0  0  0  0  0  0  0  0  0  0  0
   -9.6141    5.7968    3.2524 C   0  0  0  0  0  0  0  0  0  0  0  0
   -9.6868    4.7474    2.3590 C   0  0  0  0  0  0  0  0  0  0  0  0
  -10.7680    5.0630    1.4862 C   0  0  0  0  0  0  0  0  0  0  0  0
  -11.3185    6.2747    1.9046 C   0  0  0  0  0  0  0  0  0  0  0  0
  -10.8095    6.4604    3.1627 N   0  0  0  0  0  0  0  0  0  0  0  0
  -12.1077    7.2672    1.2110 C   0  0  0  0  0  0  0  0  0  0  0  0
  -12.6226    6.9100   -0.1541 C   0  0  0  0  0  0  0  0  0  0  0  0
  -12.1276    7.4465   -1.3549 C   0  0  0  0  0  0  0  0  0  0  0  0
  -11.1114    8.3194   -1.3559 F   0  0  0  0  0  0  0  0  0  0  0  0
  -12.6439    7.0509   -2.5874 C   0  0  0  0  0  0  0  0  0  0  0  0
  -12.1766    7.5997   -3.7187 F   0  0  0  0  0  0  0  0  0  0  0  0
  -13.6189    6.0692   -2.6502 C   0  0  0  0  0  0  0  0  0  0  0  0
  -14.0896    5.6632   -3.8377 F   0  0  0  0  0  0  0  0  0  0  0  0
  -14.0850    5.4873   -1.4827 C   0  0  0  0  0  0  0  0  0  0  0  0
  -14.9866    4.4975   -1.5408 F   0  0  0  0  0  0  0  0  0  0  0  0
  -13.6034    5.9126   -0.2487 C   0  0  0  0  0  0  0  0  0  0  0  0
  -14.0686    5.3191    0.8620 F   0  0  0  0  0  0  0  0  0  0  0  0
  -12.2379    8.5668    1.6057 C   0  0  0  0  0  0  0  0  0  0  0  0
  -12.4517    9.5669    0.6720 N   0  0  0  0  0  0  0  0  0  0  0  0
  -11.8559   10.6133    1.1689 C   0  0  0  0  0  0  0  0  0  0  0  0
  -11.1800   11.6590    0.3650 C   0  0  0  0  0  0  0  0  0  0  0  0
  -11.6047   13.0786    0.4053 C   0  0  0  0  0  0  0  0  0  0  0  0
  -12.9377   13.4210    0.6866 C   0  0  0  0  0  0  0  0  0  0  0  0
  -13.8826   12.4711    0.7374 F   0  0  0  0  0  0  0  0  0  0  0  0
  -13.3113   14.7342    0.9871 C   0  0  0  0  0  0  0  0  0  0  0  0
  -14.5810   15.0072    1.3186 F   0  0  0  0  0  0  0  0  0  0  0  0
  -12.3665   15.7461    0.9992 C   0  0  0  0  0  0  0  0  0  0  0  0
  -12.7134   16.9945    1.3403 F   0  0  0  0  0  0  0  0  0  0  0  0
  -11.0510   15.4492    0.6980 C   0  0  0  0  0  0  0  0  0  0  0  0
  -10.1200   16.4133    0.7350 F   0  0  0  0  0  0  0  0  0  0  0  0
  -10.6738   14.1354    0.4167 C   0  0  0  0  0  0  0  0  0  0  0  0
   -9.3642   13.9051    0.2469 F   0  0  0  0  0  0  0  0  0  0  0  0
  -10.0563   11.1137   -0.1590 C   0  0  0  0  0  0  0  0  0  0  0  0
   -9.1752   11.6307   -1.1920 C   0  0  0  0  0  0  0  0  0  0  0  0
   -8.0902   10.8328   -1.2800 C   0  0  0  0  0  0  0  0  0  0  0  0
   -8.1622    9.8049   -0.2331 C   0  0  0  0  0  0  0  0  0  0  0  0
   -9.4232    9.9507    0.2603 N   0  0  0  0  0  0  0  0  0  0  0  0
  -11.5802   10.5505    2.5978 C   0  0  0  0  0  0  0  0  0  0  0  0
  -11.8502    9.2632    2.8239 C   0  0  0  0  0  0  0  0  0  0  0  0
   -6.3746    7.6070    3.3873 C   0  0  0  0  0  0  0  0  0  0  0  0
   -6.0774    8.4786    2.4274 C   0  0  0  0  0  0  0  0  0  0  0  0
   -5.0802   10.2416   -0.1929 C   0  0  0  0  0  0  0  0  0  0  0  0
   -3.8867   10.3599   -0.8510 C   0  0  0  0  0  0  0  0  0  0  0  0
    2.4337    5.3194   -4.4185 C   0  0  0  0  0  0  0  0  0  0  0  0
    3.8384    5.1237   -4.9809 C   0  0  0  0  0  0  0  0  0  0  0  0
    4.1477    6.1679   -6.0408 C   0  0  0  0  0  0  0  0  0  0  0  0
    3.9653    7.5733   -5.4824 C   0  0  0  0  0  0  0  0  0  0  0  0
    2.5504    7.7754   -4.9487 C   0  0  0  0  0  0  0  0  0  0  0  0
   -0.8855    0.0457   -3.2006 H   0  0  0  0  0  0  0  0  0  0  0  0
   -0.3245   -0.3292   -1.5888 H   0  0  0  0  0  0  0  0  0  0  0  0
    0.8266   -0.0994   -2.8831 H   0  0  0  0  0  0  0  0  0  0  0  0
   -0.9445    2.0664   -1.6845 H   0  0  0  0  0  0  0  0  0  0  0  0
    0.8036    1.1845   -0.4338 H   0  0  0  0  0  0  0  0  0  0  0  0
    2.6070    2.0442   -2.6262 H   0  0  0  0  0  0  0  0  0  0  0  0
    2.8008    0.7251   -1.5227 H   0  0  0  0  0  0  0  0  0  0  0  0
    4.4192    2.4772   -0.6938 H   0  0  0  0  0  0  0  0  0  0  0  0
    3.2747    4.2351    0.5694 H   0  0  0  0  0  0  0  0  0  0  0  0
   -0.1430    2.6468   -6.4807 H   0  0  0  0  0  0  0  0  0  0  0  0
   -1.0577    4.8201   -5.3584 H   0  0  0  0  0  0  0  0  0  0  0  0
   -0.9237    4.5038   -1.7005 H   0  0  0  0  0  0  0  0  0  0  0  0
    0.3034    7.8890   -3.7472 H   0  0  0  0  0  0  0  0  0  0  0  0
    0.2057    6.2869   -4.6143 H   0  0  0  0  0  0  0  0  0  0  0  0
    3.5315    6.0821   -2.4517 H   0  0  0  0  0  0  0  0  0  0  0  0
    1.9919    7.0125   -1.8617 H   0  0  0  0  0  0  0  0  0  0  0  0
    4.4685   10.9318   -2.4581 H   0  0  0  0  0  0  0  0  0  0  0  0
    4.4430   10.0490   -0.9049 H   0  0  0  0  0  0  0  0  0  0  0  0
    2.3195   11.8869   -1.8845 H   0  0  0  0  0  0  0  0  0  0  0  0
    3.5903   12.2229   -0.6474 H   0  0  0  0  0  0  0  0  0  0  0  0
    0.4321   10.0420    0.4695 H   0  0  0  0  0  0  0  0  0  0  0  0
    1.8337    9.1333   -0.2580 H   0  0  0  0  0  0  0  0  0  0  0  0
   -0.5531    9.6825   -1.4574 H   0  0  0  0  0  0  0  0  0  0  0  0
    0.9629    9.0924   -2.1764 H   0  0  0  0  0  0  0  0  0  0  0  0
   -0.1465    9.9911   -4.0208 H   0  0  0  0  0  0  0  0  0  0  0  0
    0.5628   11.5292   -4.4229 H   0  0  0  0  0  0  0  0  0  0  0  0
   -1.8642   11.6428   -4.5650 H   0  0  0  0  0  0  0  0  0  0  0  0
   -1.2555   12.6596   -3.2492 H   0  0  0  0  0  0  0  0  0  0  0  0
   -3.8456    7.3958   -2.4638 H   0  0  0  0  0  0  0  0  0  0  0  0
   -5.9375    7.1493   -1.2408 H   0  0  0  0  0  0  0  0  0  0  0  0
   -9.0845    3.9099    2.3293 H   0  0  0  0  0  0  0  0  0  0  0  0
  -11.0875    4.4954    0.6857 H   0  0  0  0  0  0  0  0  0  0  0  0
  -11.2319    6.9832    3.8821 H   0  0  0  0  0  0  0  0  0  0  0  0
   -9.3504   12.4709   -1.7650 H   0  0  0  0  0  0  0  0  0  0  0  0
   -7.3311   10.9294   -1.9724 H   0  0  0  0  0  0  0  0  0  0  0  0
   -9.8465    9.2931    0.8583 H   0  0  0  0  0  0  0  0  0  0  0  0
  -11.2666   11.2883    3.2477 H   0  0  0  0  0  0  0  0  0  0  0  0
  -11.7912    8.8150    3.7516 H   0  0  0  0  0  0  0  0  0  0  0  0
   -5.7811    7.4082    4.2078 H   0  0  0  0  0  0  0  0  0  0  0  0
   -5.2884    9.1415    2.3712 H   0  0  0  0  0  0  0  0  0  0  0  0
   -5.3998   10.9741    0.4600 H   0  0  0  0  0  0  0  0  0  0  0  0
   -3.2643   11.1622   -0.6667 H   0  0  0  0  0  0  0  0  0  0  0  0
    1.7343    5.1042   -5.1992 H   0  0  0  0  0  0  0  0  0  0  0  0
    2.3623    4.6614   -3.5777 H   0  0  0  0  0  0  0  0  0  0  0  0
    3.9084    4.1495   -5.4178 H   0  0  0  0  0  0  0  0  0  0  0  0
    4.5439    5.2266   -4.1830 H   0  0  0  0  0  0  0  0  0  0  0  0
    3.4870    6.0316   -6.8713 H   0  0  0  0  0  0  0  0  0  0  0  0
    5.1648    6.0510   -6.3520 H   0  0  0  0  0  0  0  0  0  0  0  0
    4.1499    8.2846   -6.2601 H   0  0  0  0  0  0  0  0  0  0  0  0
    4.6546    7.7094   -4.6754 H   0  0  0  0  0  0  0  0  0  0  0  0
    2.4915    8.7542   -4.5204 H   0  0  0  0  0  0  0  0  0  0  0  0
    1.8899    7.6416   -5.7798 H   0  0  0  0  0  0  0  0  0  0  0  0
  1  2  1  0  0  0  0
  1101  1  0  0  0  0
  1102  1  0  0  0  0
  1103  1  0  0  0  0
  2  8  1  0  0  0  0
  2104  1  1  0  0  0
  3  4  1  0  0  0  0
  3  7  1  0  0  0  0
  3  2  1  0  0  0  0
  3105  1  1  0  0  0
  4  5  1  0  0  0  0
  4106  1  0  0  0  0
  4107  1  0  0  0  0
  5  6  2  0  0  0  0
  5108  1  0  0  0  0
  6  7  1  0  0  0  0
  6109  1  0  0  0  0
  8  9  1  0  0  0  0
  8 12  1  0  0  0  0
  9 10  2  0  0  0  0
 10 11  1  0  0  0  0
 10110  1  0  0  0  0
 11 12  2  0  0  0  0
 11111  1  0  0  0  0
 12 13  1  0  0  0  0
 13 14  1  0  0  0  0
 13112  1  0  0  0  0
 14 15  2  0  0  0  0
 14 16  1  0  0  0  0
 16 17  1  0  0  0  0
 16113  1  0  0  0  0
 16114  1  0  0  0  0
 17 18  1  0  0  0  0
 17 96  1  0  0  0  0
 17100  1  0  0  0  0
 18 19  1  0  0  0  0
 18115  1  0  0  0  0
 18116  1  0  0  0  0
 19 20  2  0  0  0  0
 19 21  1  0  0  0  0
 21 22  1  0  0  0  0
 22 23  1  0  0  0  0
 22117  1  0  0  0  0
 22118  1  0  0  0  0
 23 24  1  0  0  0  0
 23119  1  0  0  0  0
 23120  1  0  0  0  0
 24 25  1  0  0  0  0
 25 26  1  0  0  0  0
 25121  1  0  0  0  0
 25122  1  0  0  0  0
 26 27  1  0  0  0  0
 26123  1  0  0  0  0
 26124  1  0  0  0  0
 27 28  1  0  0  0  0
 28 29  1  0  0  0  0
 28125  1  0  0  0  0
 28126  1  0  0  0  0
 29 30  1  0  0  0  0
 29127  1  0  0  0  0
 29128  1  0  0  0  0
 30 31  1  0  0  0  0
 31 32  2  0  0  0  0
 31 33  1  0  0  0  0
 33 34  1  0  0  0  0
 33 95  2  0  0  0  0
 34 35  2  0  0  0  0
 34129  1  0  0  0  0
 35 36  1  0  0  0  0
 35130  1  0  0  0  0
 36 37  1  0  0  0  0
 36 94  2  0  0  0  0
 37 38  1  0  0  0  0
 37 88  2  0  0  0  0
 38 39  2  0  0  0  0
 38 93  1  0  0  0  0
 39 40  1  0  0  0  0
 40 41  2  0  0  0  0
 40 92  1  0  0  0  0
 41 42  1  0  0  0  0
 41 53  1  0  0  0  0
 42 43  1  0  0  0  0
 42 51  2  0  0  0  0
 43 44  1  0  0  0  0
 43 45  2  0  0  0  0
 45 46  1  0  0  0  0
 45 47  1  0  0  0  0
 47 48  1  0  0  0  0
 47 49  2  0  0  0  0
 49 50  1  0  0  0  0
 49 51  1  0  0  0  0
 51 52  1  0  0  0  0
 53 54  2  0  0  0  0
 53 57  1  0  0  0  0
 54 55  1  0  0  0  0
 54131  1  0  0  0  0
 55 56  2  0  0  0  0
 55132  1  0  0  0  0
 56 57  1  0  0  0  0
 56 58  1  0  0  0  0
 57133  1  0  0  0  0
 58 59  1  0  0  0  0
 58 70  2  0  0  0  0
 59 60  1  0  0  0  0
 59 68  2  0  0  0  0
 60 61  1  0  0  0  0
 60 62  2  0  0  0  0
 62 63  1  0  0  0  0
 62 64  1  0  0  0  0
 64 65  1  0  0  0  0
 64 66  2  0  0  0  0
 66 67  1  0  0  0  0
 66 68  1  0  0  0  0
 68 69  1  0  0  0  0
 70 71  1  0  0  0  0
 70 91  1  0  0  0  0
 71 72  2  0  0  0  0
 72 73  1  0  0  0  0
 72 90  1  0  0  0  0
 73 74  1  0  0  0  0
 73 85  2  0  0  0  0
 74 75  1  0  0  0  0
 74 83  2  0  0  0  0
 75 76  1  0  0  0  0
 75 77  2  0  0  0  0
 77 78  1  0  0  0  0
 77 79  1  0  0  0  0
 79 80  1  0  0  0  0
 79 81  2  0  0  0  0
 81 82  1  0  0  0  0
 81 83  1  0  0  0  0
 83 84  1  0  0  0  0
 85 86  1  0  0  0  0
 85 89  1  0  0  0  0
 86 87  2  0  0  0  0
 86134  1  0  0  0  0
 87 88  1  0  0  0  0
 87135  1  0  0  0  0
 88 89  1  0  0  0  0
 89136  1  0  0  0  0
 90 91  2  0  0  0  0
 90137  1  0  0  0  0
 91138  1  0  0  0  0
 92 93  2  0  0  0  0
 92139  1  0  0  0  0
 93140  1  0  0  0  0
 94 95  1  0  0  0  0
 94141  1  0  0  0  0
 95142  1  0  0  0  0
 96 97  1  0  0  0  0
 96143  1  0  0  0  0
 96144  1  0  0  0  0
 97 98  1  0  0  0  0
 97145  1  0  0  0  0
 97146  1  0  0  0  0
 98 99  1  0  0  0  0
 98147  1  0  0  0  0
 98148  1  0  0  0  0
 99100  1  0  0  0  0
 99149  1  0  0  0  0
 99150  1  0  0  0  0
100151  1  0  0  0  0
100152  1  0  0  0  0
M  END
$$$$
