0_5_3831
 OpenBabel04152301353D

131141  0  0  1  0  0  0  0  0999 V2000
    1.2236    0.2689   -0.6302 C   0  0  0  0  0  0  0  0  0  0  0  0
    0.9558    0.9712   -1.9146 C   0  0  0  0  0  0  0  0  0  0  0  0
    0.3008    0.3203   -2.8754 N   0  0  0  0  0  0  0  0  0  0  0  0
    0.2413    1.1799   -3.9180 N   0  0  0  0  0  0  0  0  0  0  0  0
   -0.3470    0.7678   -5.1542 C   0  0  0  0  0  0  0  0  0  0  0  0
    0.2791    1.1026   -6.3392 C   0  0  0  0  0  0  0  0  0  0  0  0
   -0.3698    0.7219   -7.4905 C   0  0  0  0  0  0  0  0  0  0  0  0
   -1.5497    0.0785   -7.5009 N   0  0  0  0  0  0  0  0  0  0  0  0
   -2.0576   -0.2289   -6.2978 C   0  0  0  0  0  0  0  0  0  0  0  0
   -1.5045    0.0652   -5.1150 N   0  0  0  0  0  0  0  0  0  0  0  0
    0.7651    2.4281   -3.5815 C   0  0  0  0  0  0  0  0  0  0  0  0
    0.6245    3.6198   -4.4617 C   0  0  0  0  0  0  0  0  0  0  0  0
    1.2230    2.3326   -2.2702 C   0  0  0  0  0  0  0  0  0  0  0  0
    1.8357    3.3828   -1.3651 C   0  0  1  0  0  0  0  0  0  0  0  0
    3.2550    3.7137   -1.8230 C   0  0  0  0  0  0  0  0  0  0  0  0
    1.0845    4.6934   -1.0814 C   0  0  0  0  0  0  0  0  0  0  0  0
    1.5799    5.5609   -0.3636 O   0  0  0  0  0  0  0  0  0  0  0  0
   -0.1554    4.8052   -1.6225 O   0  0  0  0  0  0  0  0  0  0  0  0
   -0.9220    5.9846   -1.2762 C   0  0  0  0  0  0  0  0  0  0  0  0
   -2.3791    5.7195   -0.8482 C   0  0  0  0  0  0  0  0  0  0  0  0
   -2.6125    4.7916    0.2076 O   0  0  0  0  0  0  0  0  0  0  0  0
   -1.9918    3.5178    0.1134 C   0  0  0  0  0  0  0  0  0  0  0  0
   -2.0361    2.7534   -1.2230 C   0  0  0  0  0  0  0  0  0  0  0  0
   -2.5676    3.4611   -2.3350 O   0  0  0  0  0  0  0  0  0  0  0  0
   -3.4252    2.7190   -3.1960 C   0  0  0  0  0  0  0  0  0  0  0  0
   -4.8654    2.7456   -2.6833 C   0  0  0  0  0  0  0  0  0  0  0  0
   -4.9471    2.2805   -1.3403 O   0  0  0  0  0  0  0  0  0  0  0  0
   -4.5948    0.9981   -1.1646 C   0  0  0  0  0  0  0  0  0  0  0  0
   -4.3805    0.1613   -2.0427 O   0  0  0  0  0  0  0  0  0  0  0  0
   -4.4779    0.7321    0.2713 C   0  0  0  0  0  0  0  0  0  0  0  0
   -4.0486   -0.5450    0.6364 C   0  0  0  0  0  0  0  0  0  0  0  0
   -4.5714   -1.0805    1.7854 C   0  0  0  0  0  0  0  0  0  0  0  0
   -5.4824   -0.3005    2.5020 C   0  0  0  0  0  0  0  0  0  0  0  0
   -6.5252   -1.0175    3.2037 C   0  0  0  0  0  0  0  0  0  0  0  0
   -6.2361   -1.3888    4.5952 C   0  0  0  0  0  0  0  0  0  0  0  0
   -6.2594   -2.5640    5.1300 N   0  0  0  0  0  0  0  0  0  0  0  0
   -5.9727   -2.3620    6.4727 C   0  0  0  0  0  0  0  0  0  0  0  0
   -6.2631   -3.2903    7.4193 C   0  0  0  0  0  0  0  0  0  0  0  0
   -6.6465   -2.9216    8.8196 C   0  0  0  0  0  0  0  0  0  0  0  0
   -6.5952   -3.8811    9.8426 C   0  0  0  0  0  0  0  0  0  0  0  0
   -6.0516   -5.0867    9.6198 F   0  0  0  0  0  0  0  0  0  0  0  0
   -7.1625   -3.6428   11.0966 C   0  0  0  0  0  0  0  0  0  0  0  0
   -7.1762   -4.6174   12.0155 F   0  0  0  0  0  0  0  0  0  0  0  0
   -7.7568   -2.4249   11.3817 C   0  0  0  0  0  0  0  0  0  0  0  0
   -8.3290   -2.2091   12.5729 F   0  0  0  0  0  0  0  0  0  0  0  0
   -7.8009   -1.4481   10.4099 C   0  0  0  0  0  0  0  0  0  0  0  0
   -8.3919   -0.2707   10.6577 F   0  0  0  0  0  0  0  0  0  0  0  0
   -7.2909   -1.7059    9.1417 C   0  0  0  0  0  0  0  0  0  0  0  0
   -7.5343   -0.7696    8.2138 F   0  0  0  0  0  0  0  0  0  0  0  0
   -6.4349   -4.6027    6.8651 C   0  0  0  0  0  0  0  0  0  0  0  0
   -5.6008   -5.4830    6.2040 C   0  0  0  0  0  0  0  0  0  0  0  0
   -6.4325   -6.1648    5.2693 C   0  0  0  0  0  0  0  0  0  0  0  0
   -7.7269   -5.6657    5.4183 C   0  0  0  0  0  0  0  0  0  0  0  0
   -7.7085   -5.0664    6.6535 N   0  0  0  0  0  0  0  0  0  0  0  0
   -8.8429   -5.5993    4.5028 C   0  0  0  0  0  0  0  0  0  0  0  0
   -8.7042   -6.3524    3.2088 C   0  0  0  0  0  0  0  0  0  0  0  0
   -8.3887   -5.7297    1.9884 C   0  0  0  0  0  0  0  0  0  0  0  0
   -8.2184   -4.4039    1.9192 F   0  0  0  0  0  0  0  0  0  0  0  0
   -8.1818   -6.4728    0.8280 C   0  0  0  0  0  0  0  0  0  0  0  0
   -7.8958   -5.8522   -0.3261 F   0  0  0  0  0  0  0  0  0  0  0  0
   -8.2348   -7.8554    0.8725 C   0  0  0  0  0  0  0  0  0  0  0  0
   -7.9947   -8.5738   -0.2336 F   0  0  0  0  0  0  0  0  0  0  0  0
   -8.5061   -8.4947    2.0723 C   0  0  0  0  0  0  0  0  0  0  0  0
   -8.5055   -9.8339    2.1295 F   0  0  0  0  0  0  0  0  0  0  0  0
   -8.7495   -7.7518    3.2257 C   0  0  0  0  0  0  0  0  0  0  0  0
   -8.9804   -8.4035    4.3762 F   0  0  0  0  0  0  0  0  0  0  0  0
   -9.8784   -4.7151    4.6009 C   0  0  0  0  0  0  0  0  0  0  0  0
  -10.6185   -4.3500    3.4841 N   0  0  0  0  0  0  0  0  0  0  0  0
  -11.0467   -3.1454    3.7431 C   0  0  0  0  0  0  0  0  0  0  0  0
  -11.1906   -2.0696    2.7298 C   0  0  0  0  0  0  0  0  0  0  0  0
  -12.4499   -1.3215    2.5160 C   0  0  0  0  0  0  0  0  0  0  0  0
  -13.6981   -1.9492    2.6337 C   0  0  0  0  0  0  0  0  0  0  0  0
  -13.7717   -3.2804    2.7763 F   0  0  0  0  0  0  0  0  0  0  0  0
  -14.8868   -1.2121    2.6676 C   0  0  0  0  0  0  0  0  0  0  0  0
  -16.0582   -1.8410    2.8368 F   0  0  0  0  0  0  0  0  0  0  0  0
  -14.8599    0.1706    2.5783 C   0  0  0  0  0  0  0  0  0  0  0  0
  -15.9943    0.8792    2.6595 F   0  0  0  0  0  0  0  0  0  0  0  0
  -13.6473    0.8189    2.4474 C   0  0  0  0  0  0  0  0  0  0  0  0
  -13.6019    2.1578    2.3965 F   0  0  0  0  0  0  0  0  0  0  0  0
  -12.4616    0.0861    2.4284 C   0  0  0  0  0  0  0  0  0  0  0  0
  -11.3184    0.7866    2.4139 F   0  0  0  0  0  0  0  0  0  0  0  0
   -9.9471   -1.7022    2.3423 C   0  0  0  0  0  0  0  0  0  0  0  0
   -9.5236   -0.8769    1.2252 C   0  0  0  0  0  0  0  0  0  0  0  0
   -8.1947   -0.6583    1.3288 C   0  0  0  0  0  0  0  0  0  0  0  0
   -7.7061   -1.2359    2.5895 C   0  0  0  0  0  0  0  0  0  0  0  0
   -8.7725   -1.9520    3.0312 N   0  0  0  0  0  0  0  0  0  0  0  0
  -10.9881   -2.7537    5.1444 C   0  0  0  0  0  0  0  0  0  0  0  0
  -10.2321   -3.7424    5.6274 C   0  0  0  0  0  0  0  0  0  0  0  0
   -5.5791   -0.9839    6.6189 C   0  0  0  0  0  0  0  0  0  0  0  0
   -5.7946   -0.3119    5.4912 C   0  0  0  0  0  0  0  0  0  0  0  0
   -5.6189    1.0743    2.3227 C   0  0  0  0  0  0  0  0  0  0  0  0
   -5.0827    1.6109    1.1824 C   0  0  0  0  0  0  0  0  0  0  0  0
    0.8986   -0.7478   -0.7051 H   0  0  0  0  0  0  0  0  0  0  0  0
    0.6918    0.7560    0.1603 H   0  0  0  0  0  0  0  0  0  0  0  0
    2.2729    0.2935   -0.4223 H   0  0  0  0  0  0  0  0  0  0  0  0
    1.1789    1.6076   -6.3593 H   0  0  0  0  0  0  0  0  0  0  0  0
    0.0736    0.9423   -8.3960 H   0  0  0  0  0  0  0  0  0  0  0  0
   -2.9553   -0.7378   -6.2830 H   0  0  0  0  0  0  0  0  0  0  0  0
    0.2376    3.3174   -5.4123 H   0  0  0  0  0  0  0  0  0  0  0  0
    1.5816    4.0790   -4.5959 H   0  0  0  0  0  0  0  0  0  0  0  0
   -0.0468    4.3198   -4.0097 H   0  0  0  0  0  0  0  0  0  0  0  0
    1.7877    2.8833   -0.4200 H   0  0  0  0  0  0  0  0  0  0  0  0
    3.2176    4.2091   -2.7707 H   0  0  0  0  0  0  0  0  0  0  0  0
    3.8199    2.8097   -1.9151 H   0  0  0  0  0  0  0  0  0  0  0  0
    3.7216    4.3541   -1.1039 H   0  0  0  0  0  0  0  0  0  0  0  0
   -0.9401    6.6298   -2.1296 H   0  0  0  0  0  0  0  0  0  0  0  0
   -0.4365    6.4143   -0.4250 H   0  0  0  0  0  0  0  0  0  0  0  0
   -2.9020    5.3586   -1.7091 H   0  0  0  0  0  0  0  0  0  0  0  0
   -2.7151    6.6568   -0.4565 H   0  0  0  0  0  0  0  0  0  0  0  0
   -2.4539    2.8906    0.8469 H   0  0  0  0  0  0  0  0  0  0  0  0
   -0.9522    3.7326    0.2475 H   0  0  0  0  0  0  0  0  0  0  0  0
   -2.6334    1.8775   -1.0781 H   0  0  0  0  0  0  0  0  0  0  0  0
   -1.0147    2.5548   -1.4725 H   0  0  0  0  0  0  0  0  0  0  0  0
   -3.0869    1.7048   -3.2388 H   0  0  0  0  0  0  0  0  0  0  0  0
   -3.3998    3.1618   -4.1697 H   0  0  0  0  0  0  0  0  0  0  0  0
   -5.4684    2.1185   -3.3062 H   0  0  0  0  0  0  0  0  0  0  0  0
   -5.2144    3.7567   -2.7114 H   0  0  0  0  0  0  0  0  0  0  0  0
   -3.3651   -1.0653    0.0645 H   0  0  0  0  0  0  0  0  0  0  0  0
   -4.3024   -2.0231    2.1083 H   0  0  0  0  0  0  0  0  0  0  0  0
   -4.5889   -5.6183    6.3551 H   0  0  0  0  0  0  0  0  0  0  0  0
   -6.1324   -6.8943    4.6039 H   0  0  0  0  0  0  0  0  0  0  0  0
   -8.4692   -4.9846    7.2731 H   0  0  0  0  0  0  0  0  0  0  0  0
  -10.1361   -0.5172    0.4766 H   0  0  0  0  0  0  0  0  0  0  0  0
   -7.6142   -0.1641    0.6332 H   0  0  0  0  0  0  0  0  0  0  0  0
   -8.7151   -2.5929    3.7764 H   0  0  0  0  0  0  0  0  0  0  0  0
  -11.4099   -1.9442    5.6259 H   0  0  0  0  0  0  0  0  0  0  0  0
   -9.9329   -3.8102    6.6128 H   0  0  0  0  0  0  0  0  0  0  0  0
   -5.1843   -0.5744    7.4800 H   0  0  0  0  0  0  0  0  0  0  0  0
   -5.6819    0.6955    5.2978 H   0  0  0  0  0  0  0  0  0  0  0  0
   -6.1029    1.6627    3.0188 H   0  0  0  0  0  0  0  0  0  0  0  0
   -5.1222    2.6259    0.9998 H   0  0  0  0  0  0  0  0  0  0  0  0
  1  2  1  0  0  0  0
  1 93  1  0  0  0  0
  1 94  1  0  0  0  0
  1 95  1  0  0  0  0
  2  3  2  0  0  0  0
  2 13  1  0  0  0  0
  3  4  1  0  0  0  0
  4  5  1  0  0  0  0
  4 11  1  0  0  0  0
  5  6  1  0  0  0  0
  5 10  2  0  0  0  0
  6  7  2  0  0  0  0
  6 96  1  0  0  0  0
  7  8  1  0  0  0  0
  7 97  1  0  0  0  0
  8  9  2  0  0  0  0
  9 10  1  0  0  0  0
  9 98  1  0  0  0  0
 11 12  1  0  0  0  0
 11 13  2  0  0  0  0
 12 99  1  0  0  0  0
 12100  1  0  0  0  0
 12101  1  0  0  0  0
 13 14  1  0  0  0  0
 14 15  1  0  0  0  0
 14 16  1  0  0  0  0
 14102  1  1  0  0  0
 15103  1  0  0  0  0
 15104  1  0  0  0  0
 15105  1  0  0  0  0
 16 17  2  0  0  0  0
 16 18  1  0  0  0  0
 18 19  1  0  0  0  0
 19 20  1  0  0  0  0
 19106  1  0  0  0  0
 19107  1  0  0  0  0
 20 21  1  0  0  0  0
 20108  1  0  0  0  0
 20109  1  0  0  0  0
 21 22  1  0  0  0  0
 22 23  1  0  0  0  0
 22110  1  0  0  0  0
 22111  1  0  0  0  0
 23 24  1  0  0  0  0
 23112  1  0  0  0  0
 23113  1  0  0  0  0
 24 25  1  0  0  0  0
 25 26  1  0  0  0  0
 25114  1  0  0  0  0
 25115  1  0  0  0  0
 26 27  1  0  0  0  0
 26116  1  0  0  0  0
 26117  1  0  0  0  0
 27 28  1  0  0  0  0
 28 29  2  0  0  0  0
 28 30  1  0  0  0  0
 30 31  1  0  0  0  0
 30 92  2  0  0  0  0
 31 32  2  0  0  0  0
 31118  1  0  0  0  0
 32 33  1  0  0  0  0
 32119  1  0  0  0  0
 33 34  1  0  0  0  0
 33 91  2  0  0  0  0
 34 35  1  0  0  0  0
 34 85  2  0  0  0  0
 35 36  2  0  0  0  0
 35 90  1  0  0  0  0
 36 37  1  0  0  0  0
 37 38  2  0  0  0  0
 37 89  1  0  0  0  0
 38 39  1  0  0  0  0
 38 50  1  0  0  0  0
 39 40  1  0  0  0  0
 39 48  2  0  0  0  0
 40 41  1  0  0  0  0
 40 42  2  0  0  0  0
 42 43  1  0  0  0  0
 42 44  1  0  0  0  0
 44 45  1  0  0  0  0
 44 46  2  0  0  0  0
 46 47  1  0  0  0  0
 46 48  1  0  0  0  0
 48 49  1  0  0  0  0
 50 51  2  0  0  0  0
 50 54  1  0  0  0  0
 51 52  1  0  0  0  0
 51120  1  0  0  0  0
 52 53  2  0  0  0  0
 52121  1  0  0  0  0
 53 54  1  0  0  0  0
 53 55  1  0  0  0  0
 54122  1  0  0  0  0
 55 56  1  0  0  0  0
 55 67  2  0  0  0  0
 56 57  1  0  0  0  0
 56 65  2  0  0  0  0
 57 58  1  0  0  0  0
 57 59  2  0  0  0  0
 59 60  1  0  0  0  0
 59 61  1  0  0  0  0
 61 62  1  0  0  0  0
 61 63  2  0  0  0  0
 63 64  1  0  0  0  0
 63 65  1  0  0  0  0
 65 66  1  0  0  0  0
 67 68  1  0  0  0  0
 67 88  1  0  0  0  0
 68 69  2  0  0  0  0
 69 70  1  0  0  0  0
 69 87  1  0  0  0  0
 70 71  1  0  0  0  0
 70 82  2  0  0  0  0
 71 72  1  0  0  0  0
 71 80  2  0  0  0  0
 72 73  1  0  0  0  0
 72 74  2  0  0  0  0
 74 75  1  0  0  0  0
 74 76  1  0  0  0  0
 76 77  1  0  0  0  0
 76 78  2  0  0  0  0
 78 79  1  0  0  0  0
 78 80  1  0  0  0  0
 80 81  1  0  0  0  0
 82 83  1  0  0  0  0
 82 86  1  0  0  0  0
 83 84  2  0  0  0  0
 83123  1  0  0  0  0
 84 85  1  0  0  0  0
 84124  1  0  0  0  0
 85 86  1  0  0  0  0
 86125  1  0  0  0  0
 87 88  2  0  0  0  0
 87126  1  0  0  0  0
 88127  1  0  0  0  0
 89 90  2  0  0  0  0
 89128  1  0  0  0  0
 90129  1  0  0  0  0
 91 92  1  0  0  0  0
 91130  1  0  0  0  0
 92131  1  0  0  0  0
M  END
$$$$
