0_6_2438
 OpenBabel04152301373D

151162  0  0  1  0  0  0  0  0999 V2000
    7.6705   -2.3024    1.8500 O   0  0  0  0  0  0  0  0  0  0  0  0
    6.7472   -1.4879    1.7848 C   0  0  0  0  0  0  0  0  0  0  0  0
    7.0477   -0.1733    1.7297 O   0  0  0  0  0  0  0  0  0  0  0  0
    6.2488    1.0143    1.5571 C   0  0  0  0  0  0  0  0  0  0  0  0
    5.5294    1.1483    0.2301 C   0  0  0  0  0  0  0  0  0  0  0  0
    5.7634    0.1092   -0.7020 O   0  0  0  0  0  0  0  0  0  0  0  0
    7.0819   -0.1775   -1.1359 C   0  0  0  0  0  0  0  0  0  0  0  0
    7.0603   -0.5586   -2.6130 C   0  0  0  0  0  0  0  0  0  0  0  0
    6.5810    0.4612   -3.4852 O   0  0  0  0  0  0  0  0  0  0  0  0
    5.3672    1.1149   -3.1289 C   0  0  0  0  0  0  0  0  0  0  0  0
    4.0736    0.2802   -2.9764 C   0  0  0  0  0  0  0  0  0  0  0  0
    4.2696   -1.1130   -2.7605 O   0  0  0  0  0  0  0  0  0  0  0  0
    3.8487   -1.9804   -3.8101 C   0  0  0  0  0  0  0  0  0  0  0  0
    4.7507   -2.0376   -5.0588 C   0  0  0  0  0  0  0  0  0  0  0  0
    5.1611   -0.7686   -5.5875 O   0  0  0  0  0  0  0  0  0  0  0  0
    4.1761    0.0129   -6.0694 C   0  0  0  0  0  0  0  0  0  0  0  0
    2.9942   -0.3197   -6.1104 O   0  0  0  0  0  0  0  0  0  0  0  0
    4.6354    1.4063   -6.4370 C   0  0  1  0  0  0  0  0  0  0  0  0
    6.1291    1.7268   -6.4446 C   0  0  0  0  0  0  0  0  0  0  0  0
    6.2968    3.2312   -6.5641 C   0  0  0  0  0  0  0  0  0  0  0  0
    5.3879    3.9208   -7.5700 C   0  0  0  0  0  0  0  0  0  0  0  0
    5.6269    5.0917   -7.8692 O   0  0  0  0  0  0  0  0  0  0  0  0
    4.2698    3.2323   -8.0319 N   0  0  0  0  0  0  0  0  0  0  0  0
    3.2704    3.9056   -8.8701 C   0  0  0  0  0  0  0  0  0  0  0  0
    2.5916    5.0933   -8.1655 C   0  0  0  0  0  0  0  0  0  0  0  0
    1.5103    5.7047   -9.0546 C   0  0  0  0  0  0  0  0  0  0  0  0
    2.0553    6.0665  -10.4350 C   0  0  0  0  0  0  0  0  0  0  0  0
    2.7195    4.8733  -11.1159 C   0  0  0  0  0  0  0  0  0  0  0  0
    3.8220    4.2846  -10.2459 C   0  0  0  0  0  0  0  0  0  0  0  0
    4.0479    1.7965   -7.7895 C   0  0  1  0  0  0  0  0  0  0  0  0
    4.5584    0.8717   -8.8983 C   0  0  0  0  0  0  0  0  0  0  0  0
    5.7085    1.1536   -9.6487 C   0  0  0  0  0  0  0  0  0  0  0  0
    6.3046    0.1649  -10.4334 C   0  0  0  0  0  0  0  0  0  0  0  0
    5.7578   -1.1150  -10.4859 C   0  0  0  0  0  0  0  0  0  0  0  0
    4.5799   -1.3936   -9.8034 C   0  0  0  0  0  0  0  0  0  0  0  0
    3.9686   -0.3985   -9.0446 C   0  0  0  0  0  0  0  0  0  0  0  0
    5.3679   -2.0210    1.8822 C   0  0  0  0  0  0  0  0  0  0  0  0
    4.2973   -1.6324    1.0857 C   0  0  0  0  0  0  0  0  0  0  0  0
    3.0169   -2.0940    1.3136 C   0  0  0  0  0  0  0  0  0  0  0  0
    2.8034   -3.0770    2.2685 C   0  0  0  0  0  0  0  0  0  0  0  0
    1.4152   -3.3034    2.7011 C   0  0  0  0  0  0  0  0  0  0  0  0
    1.0390   -2.8049    4.0649 C   0  0  0  0  0  0  0  0  0  0  0  0
   -0.0777   -2.9419    4.7238 N   0  0  0  0  0  0  0  0  0  0  0  0
    0.1436   -2.3423    5.9570 C   0  0  0  0  0  0  0  0  0  0  0  0
   -0.7160   -2.2431    6.9949 C   0  0  0  0  0  0  0  0  0  0  0  0
   -0.1754   -1.6884    8.2801 C   0  0  0  0  0  0  0  0  0  0  0  0
    0.1769   -0.3385    8.4325 C   0  0  0  0  0  0  0  0  0  0  0  0
    0.0117    0.5217    7.4160 F   0  0  0  0  0  0  0  0  0  0  0  0
    0.7776    0.1181    9.6049 C   0  0  0  0  0  0  0  0  0  0  0  0
    1.1759    1.3947    9.6987 F   0  0  0  0  0  0  0  0  0  0  0  0
    1.0000   -0.7537   10.6603 C   0  0  0  0  0  0  0  0  0  0  0  0
    1.5894   -0.3160   11.7815 F   0  0  0  0  0  0  0  0  0  0  0  0
    0.6300   -2.0843   10.5444 C   0  0  0  0  0  0  0  0  0  0  0  0
    0.8431   -2.9297   11.5622 F   0  0  0  0  0  0  0  0  0  0  0  0
    0.0591   -2.5501    9.3631 C   0  0  0  0  0  0  0  0  0  0  0  0
   -0.2447   -3.8532    9.2677 F   0  0  0  0  0  0  0  0  0  0  0  0
   -2.0655   -2.7288    6.9279 C   0  0  0  0  0  0  0  0  0  0  0  0
   -3.0294   -2.7614    7.9148 C   0  0  0  0  0  0  0  0  0  0  0  0
   -4.1738   -3.3598    7.3749 C   0  0  0  0  0  0  0  0  0  0  0  0
   -3.9440   -3.6415    6.0348 C   0  0  0  0  0  0  0  0  0  0  0  0
   -2.6406   -3.2616    5.7788 N   0  0  0  0  0  0  0  0  0  0  0  0
   -4.8537   -4.2087    5.0699 C   0  0  0  0  0  0  0  0  0  0  0  0
   -6.2494   -4.4843    5.5379 C   0  0  0  0  0  0  0  0  0  0  0  0
   -6.7176   -5.7905    5.7339 C   0  0  0  0  0  0  0  0  0  0  0  0
   -5.9313   -6.8401    5.4509 F   0  0  0  0  0  0  0  0  0  0  0  0
   -8.0151   -6.0199    6.1784 C   0  0  0  0  0  0  0  0  0  0  0  0
   -8.4642   -7.2759    6.3058 F   0  0  0  0  0  0  0  0  0  0  0  0
   -8.8491   -4.9510    6.4740 C   0  0  0  0  0  0  0  0  0  0  0  0
  -10.0959   -5.1746    6.9103 F   0  0  0  0  0  0  0  0  0  0  0  0
   -8.3952   -3.6509    6.3103 C   0  0  0  0  0  0  0  0  0  0  0  0
   -9.1931   -2.6176    6.6121 F   0  0  0  0  0  0  0  0  0  0  0  0
   -7.1118   -3.4177    5.8316 C   0  0  0  0  0  0  0  0  0  0  0  0
   -6.7017   -2.1507    5.6680 F   0  0  0  0  0  0  0  0  0  0  0  0
   -4.5826   -4.4907    3.7705 C   0  0  0  0  0  0  0  0  0  0  0  0
   -3.4112   -4.3052    3.0531 N   0  0  0  0  0  0  0  0  0  0  0  0
   -3.6490   -4.7590    1.8436 C   0  0  0  0  0  0  0  0  0  0  0  0
   -2.7347   -4.7973    0.6480 C   0  0  0  0  0  0  0  0  0  0  0  0
   -3.1858   -5.3119   -0.6738 C   0  0  0  0  0  0  0  0  0  0  0  0
   -4.1929   -4.6653   -1.4035 C   0  0  0  0  0  0  0  0  0  0  0  0
   -4.7746   -3.5624   -0.9096 F   0  0  0  0  0  0  0  0  0  0  0  0
   -4.6365   -5.1689   -2.6267 C   0  0  0  0  0  0  0  0  0  0  0  0
   -5.6354   -4.5572   -3.2777 F   0  0  0  0  0  0  0  0  0  0  0  0
   -4.0588   -6.3097   -3.1630 C   0  0  0  0  0  0  0  0  0  0  0  0
   -4.4828   -6.7905   -4.3397 F   0  0  0  0  0  0  0  0  0  0  0  0
   -3.0472   -6.9562   -2.4720 C   0  0  0  0  0  0  0  0  0  0  0  0
   -2.4719   -8.0489   -2.9923 F   0  0  0  0  0  0  0  0  0  0  0  0
   -2.6284   -6.4737   -1.2336 C   0  0  0  0  0  0  0  0  0  0  0  0
   -1.6627   -7.1384   -0.5820 F   0  0  0  0  0  0  0  0  0  0  0  0
   -1.4635   -4.3988    0.8331 C   0  0  0  0  0  0  0  0  0  0  0  0
   -0.4074   -4.4038   -0.1706 C   0  0  0  0  0  0  0  0  0  0  0  0
    0.7526   -4.0839    0.4239 C   0  0  0  0  0  0  0  0  0  0  0  0
    0.4960   -3.7521    1.8287 C   0  0  0  0  0  0  0  0  0  0  0  0
   -0.8477   -3.9548    1.9772 N   0  0  0  0  0  0  0  0  0  0  0  0
   -4.9961   -5.3071    1.6603 C   0  0  0  0  0  0  0  0  0  0  0  0
   -5.5362   -5.0817    2.8495 C   0  0  0  0  0  0  0  0  0  0  0  0
    1.4929   -1.8337    5.9605 C   0  0  0  0  0  0  0  0  0  0  0  0
    2.0693   -2.0356    4.7889 C   0  0  0  0  0  0  0  0  0  0  0  0
    3.8950   -3.6387    2.9417 C   0  0  0  0  0  0  0  0  0  0  0  0
    5.1653   -3.0838    2.7731 C   0  0  0  0  0  0  0  0  0  0  0  0
    6.8942    1.8608    1.6657 H   0  0  0  0  0  0  0  0  0  0  0  0
    5.4778    0.9513    2.2963 H   0  0  0  0  0  0  0  0  0  0  0  0
    5.8376    2.0690   -0.2196 H   0  0  0  0  0  0  0  0  0  0  0  0
    4.4850    1.1057    0.4587 H   0  0  0  0  0  0  0  0  0  0  0  0
    7.4767   -0.9908   -0.5636 H   0  0  0  0  0  0  0  0  0  0  0  0
    7.6978    0.6868   -0.9998 H   0  0  0  0  0  0  0  0  0  0  0  0
    6.4312   -1.4167   -2.7264 H   0  0  0  0  0  0  0  0  0  0  0  0
    8.0769   -0.7413   -2.8923 H   0  0  0  0  0  0  0  0  0  0  0  0
    5.1766    1.8510   -3.8817 H   0  0  0  0  0  0  0  0  0  0  0  0
    5.5546    1.4746   -2.1387 H   0  0  0  0  0  0  0  0  0  0  0  0
    3.4970    0.3982   -3.8700 H   0  0  0  0  0  0  0  0  0  0  0  0
    3.5854    0.6494   -2.0988 H   0  0  0  0  0  0  0  0  0  0  0  0
    2.8771   -1.6616   -4.1253 H   0  0  0  0  0  0  0  0  0  0  0  0
    3.8799   -2.9653   -3.3930 H   0  0  0  0  0  0  0  0  0  0  0  0
    4.2165   -2.5567   -5.8269 H   0  0  0  0  0  0  0  0  0  0  0  0
    5.6490   -2.5287   -4.7479 H   0  0  0  0  0  0  0  0  0  0  0  0
    4.2690    1.9842   -5.6144 H   0  0  0  0  0  0  0  0  0  0  0  0
    6.5979    1.2439   -7.2764 H   0  0  0  0  0  0  0  0  0  0  0  0
    6.5844    1.3771   -5.5417 H   0  0  0  0  0  0  0  0  0  0  0  0
    7.3095    3.4271   -6.8485 H   0  0  0  0  0  0  0  0  0  0  0  0
    6.0282    3.6303   -5.6084 H   0  0  0  0  0  0  0  0  0  0  0  0
    2.4982    3.1840   -9.0369 H   0  0  0  0  0  0  0  0  0  0  0  0
    3.3276    5.8381   -7.9456 H   0  0  0  0  0  0  0  0  0  0  0  0
    2.1361    4.7424   -7.2631 H   0  0  0  0  0  0  0  0  0  0  0  0
    1.1355    6.5907   -8.5861 H   0  0  0  0  0  0  0  0  0  0  0  0
    0.7324    4.9810   -9.1811 H   0  0  0  0  0  0  0  0  0  0  0  0
    2.7770    6.8492  -10.3276 H   0  0  0  0  0  0  0  0  0  0  0  0
    1.2333    6.3802  -11.0440 H   0  0  0  0  0  0  0  0  0  0  0  0
    3.1420    5.1929  -12.0455 H   0  0  0  0  0  0  0  0  0  0  0  0
    1.9773    4.1197  -11.2774 H   0  0  0  0  0  0  0  0  0  0  0  0
    4.2168    3.4106  -10.7205 H   0  0  0  0  0  0  0  0  0  0  0  0
    4.5935    5.0155  -10.1213 H   0  0  0  0  0  0  0  0  0  0  0  0
    2.9872    1.6560   -7.7872 H   0  0  0  0  0  0  0  0  0  0  0  0
    6.1181    2.1004   -9.6207 H   0  0  0  0  0  0  0  0  0  0  0  0
    7.1542    0.3833  -10.9770 H   0  0  0  0  0  0  0  0  0  0  0  0
    6.2268   -1.8553  -11.0309 H   0  0  0  0  0  0  0  0  0  0  0  0
    4.1596   -2.3345   -9.8586 H   0  0  0  0  0  0  0  0  0  0  0  0
    3.0676   -0.5955   -8.5815 H   0  0  0  0  0  0  0  0  0  0  0  0
    4.4643   -0.9811    0.3028 H   0  0  0  0  0  0  0  0  0  0  0  0
    2.2233   -1.7102    0.7770 H   0  0  0  0  0  0  0  0  0  0  0  0
   -2.9252   -2.4078    8.8787 H   0  0  0  0  0  0  0  0  0  0  0  0
   -5.0461   -3.5591    7.8890 H   0  0  0  0  0  0  0  0  0  0  0  0
   -2.1857   -3.3543    4.9107 H   0  0  0  0  0  0  0  0  0  0  0  0
   -0.5308   -4.6178   -1.1726 H   0  0  0  0  0  0  0  0  0  0  0  0
    1.6772   -4.0732   -0.0345 H   0  0  0  0  0  0  0  0  0  0  0  0
   -1.3274   -3.7977    2.8225 H   0  0  0  0  0  0  0  0  0  0  0  0
   -5.4131   -5.7506    0.8269 H   0  0  0  0  0  0  0  0  0  0  0  0
   -6.5155   -5.2998    3.0912 H   0  0  0  0  0  0  0  0  0  0  0  0
    1.9457   -1.3754    6.7667 H   0  0  0  0  0  0  0  0  0  0  0  0
    3.0008   -1.7330    4.4637 H   0  0  0  0  0  0  0  0  0  0  0  0
    3.7619   -4.4561    3.5575 H   0  0  0  0  0  0  0  0  0  0  0  0
    5.9626   -3.4599    3.3097 H   0  0  0  0  0  0  0  0  0  0  0  0
  1  2  2  0  0  0  0
  2  3  1  0  0  0  0
  2 37  1  0  0  0  0
  3  4  1  0  0  0  0
  4  5  1  0  0  0  0
  4100  1  0  0  0  0
  4101  1  0  0  0  0
  5  6  1  0  0  0  0
  5102  1  0  0  0  0
  5103  1  0  0  0  0
  6  7  1  0  0  0  0
  7  8  1  0  0  0  0
  7104  1  0  0  0  0
  7105  1  0  0  0  0
  8  9  1  0  0  0  0
  8106  1  0  0  0  0
  8107  1  0  0  0  0
  9 10  1  0  0  0  0
 10 11  1  0  0  0  0
 10108  1  0  0  0  0
 10109  1  0  0  0  0
 11 12  1  0  0  0  0
 11110  1  0  0  0  0
 11111  1  0  0  0  0
 12 13  1  0  0  0  0
 13 14  1  0  0  0  0
 13112  1  0  0  0  0
 13113  1  0  0  0  0
 14 15  1  0  0  0  0
 14114  1  0  0  0  0
 14115  1  0  0  0  0
 15 16  1  0  0  0  0
 16 17  2  0  0  0  0
 18 19  1  0  0  0  0
 18 30  1  0  0  0  0
 18 16  1  0  0  0  0
 18116  1  1  0  0  0
 19 20  1  0  0  0  0
 19117  1  0  0  0  0
 19118  1  0  0  0  0
 20 21  1  0  0  0  0
 20119  1  0  0  0  0
 20120  1  0  0  0  0
 21 22  2  0  0  0  0
 21 23  1  0  0  0  0
 23 24  1  0  0  0  0
 23 30  1  0  0  0  0
 24 25  1  0  0  0  0
 24 29  1  0  0  0  0
 24121  1  0  0  0  0
 25 26  1  0  0  0  0
 25122  1  0  0  0  0
 25123  1  0  0  0  0
 26 27  1  0  0  0  0
 26124  1  0  0  0  0
 26125  1  0  0  0  0
 27 28  1  0  0  0  0
 27126  1  0  0  0  0
 27127  1  0  0  0  0
 28 29  1  0  0  0  0
 28128  1  0  0  0  0
 28129  1  0  0  0  0
 29130  1  0  0  0  0
 29131  1  0  0  0  0
 30 31  1  0  0  0  0
 30132  1  1  0  0  0
 31 32  1  0  0  0  0
 31 36  2  0  0  0  0
 32 33  2  0  0  0  0
 32133  1  0  0  0  0
 33 34  1  0  0  0  0
 33134  1  0  0  0  0
 34 35  2  0  0  0  0
 34135  1  0  0  0  0
 35 36  1  0  0  0  0
 35136  1  0  0  0  0
 36137  1  0  0  0  0
 37 38  1  0  0  0  0
 37 99  2  0  0  0  0
 38 39  2  0  0  0  0
 38138  1  0  0  0  0
 39 40  1  0  0  0  0
 39139  1  0  0  0  0
 40 41  1  0  0  0  0
 40 98  2  0  0  0  0
 41 42  1  0  0  0  0
 41 92  2  0  0  0  0
 42 43  2  0  0  0  0
 42 97  1  0  0  0  0
 43 44  1  0  0  0  0
 44 45  2  0  0  0  0
 44 96  1  0  0  0  0
 45 46  1  0  0  0  0
 45 57  1  0  0  0  0
 46 47  1  0  0  0  0
 46 55  2  0  0  0  0
 47 48  1  0  0  0  0
 47 49  2  0  0  0  0
 49 50  1  0  0  0  0
 49 51  1  0  0  0  0
 51 52  1  0  0  0  0
 51 53  2  0  0  0  0
 53 54  1  0  0  0  0
 53 55  1  0  0  0  0
 55 56  1  0  0  0  0
 57 58  2  0  0  0  0
 57 61  1  0  0  0  0
 58 59  1  0  0  0  0
 58140  1  0  0  0  0
 59 60  2  0  0  0  0
 59141  1  0  0  0  0
 60 61  1  0  0  0  0
 60 62  1  0  0  0  0
 61142  1  0  0  0  0
 62 63  1  0  0  0  0
 62 74  2  0  0  0  0
 63 64  1  0  0  0  0
 63 72  2  0  0  0  0
 64 65  1  0  0  0  0
 64 66  2  0  0  0  0
 66 67  1  0  0  0  0
 66 68  1  0  0  0  0
 68 69  1  0  0  0  0
 68 70  2  0  0  0  0
 70 71  1  0  0  0  0
 70 72  1  0  0  0  0
 72 73  1  0  0  0  0
 74 75  1  0  0  0  0
 74 95  1  0  0  0  0
 75 76  2  0  0  0  0
 76 77  1  0  0  0  0
 76 94  1  0  0  0  0
 77 78  1  0  0  0  0
 77 89  2  0  0  0  0
 78 79  1  0  0  0  0
 78 87  2  0  0  0  0
 79 80  1  0  0  0  0
 79 81  2  0  0  0  0
 81 82  1  0  0  0  0
 81 83  1  0  0  0  0
 83 84  1  0  0  0  0
 83 85  2  0  0  0  0
 85 86  1  0  0  0  0
 85 87  1  0  0  0  0
 87 88  1  0  0  0  0
 89 90  1  0  0  0  0
 89 93  1  0  0  0  0
 90 91  2  0  0  0  0
 90143  1  0  0  0  0
 91 92  1  0  0  0  0
 91144  1  0  0  0  0
 92 93  1  0  0  0  0
 93145  1  0  0  0  0
 94 95  2  0  0  0  0
 94146  1  0  0  0  0
 95147  1  0  0  0  0
 96 97  2  0  0  0  0
 96148  1  0  0  0  0
 97149  1  0  0  0  0
 98 99  1  0  0  0  0
 98150  1  0  0  0  0
 99151  1  0  0  0  0
M  END
$$$$
