0_6_6537
 OpenBabel04152301363D

139149  0  0  1  0  0  0  0  0999 V2000
    1.0265   -2.4544    0.4222 C   0  0  0  0  0  0  0  0  0  0  0  0
    0.4667   -1.4877   -0.6303 C   0  0  2  0  0  0  0  0  0  0  0  0
    0.8417    0.2016   -0.0014 S   0  0  0  0  0  0  0  0  0  0  0  0
    1.3409    1.1508   -1.5002 C   0  0  0  0  0  0  0  0  0  0  0  0
    0.1707    1.9349   -2.0948 C   0  0  0  0  0  0  0  0  0  0  0  0
    0.6589    2.7889   -3.2610 C   0  0  0  0  0  0  0  0  0  0  0  0
    1.3313    1.9941   -4.2380 O   0  0  0  0  0  0  0  0  0  0  0  0
    2.4817    1.3359   -3.7110 C   0  0  0  0  0  0  0  0  0  0  0  0
    2.0804    0.3808   -2.5932 C   0  0  0  0  0  0  0  0  0  0  0  0
   -1.0008   -1.7022   -0.8487 C   0  0  0  0  0  0  0  0  0  0  0  0
   -1.8843   -2.6936   -0.4654 C   0  0  0  0  0  0  0  0  0  0  0  0
   -3.1576   -2.3144   -0.9478 C   0  0  0  0  0  0  0  0  0  0  0  0
   -2.9915   -1.1147   -1.6150 C   0  0  0  0  0  0  0  0  0  0  0  0
   -3.9433   -0.1829   -2.1721 C   0  0  0  0  0  0  0  0  0  0  0  0
   -3.7136    0.7061   -2.9827 O   0  0  0  0  0  0  0  0  0  0  0  0
   -5.1387   -0.3677   -1.5493 O   0  0  0  0  0  0  0  0  0  0  0  0
   -6.1574    0.6231   -1.7497 C   0  0  0  0  0  0  0  0  0  0  0  0
   -5.8004    2.0338   -1.2622 C   0  0  0  0  0  0  0  0  0  0  0  0
   -5.5643    2.1175    0.1384 O   0  0  0  0  0  0  0  0  0  0  0  0
   -4.2472    1.7619    0.5655 C   0  0  0  0  0  0  0  0  0  0  0  0
   -4.2124    0.4751    1.4035 C   0  0  0  0  0  0  0  0  0  0  0  0
   -5.4552   -0.2019    1.4862 O   0  0  0  0  0  0  0  0  0  0  0  0
   -6.4721    0.3432    2.3253 C   0  0  0  0  0  0  0  0  0  0  0  0
   -6.3497    1.7364    2.9809 C   0  0  0  0  0  0  0  0  0  0  0  0
   -5.0687    2.0216    3.5354 O   0  0  0  0  0  0  0  0  0  0  0  0
   -4.9794    2.0328    4.9552 C   0  0  0  0  0  0  0  0  0  0  0  0
   -4.8429    0.6298    5.5557 C   0  0  0  0  0  0  0  0  0  0  0  0
   -6.0093   -0.1928    5.3972 O   0  0  0  0  0  0  0  0  0  0  0  0
   -7.1438    0.2486    5.9812 C   0  0  0  0  0  0  0  0  0  0  0  0
   -7.2849    1.2332    6.6825 O   0  0  0  0  0  0  0  0  0  0  0  0
   -8.2568   -0.5838    5.4930 C   0  0  0  0  0  0  0  0  0  0  0  0
   -9.3656    0.0474    4.9175 C   0  0  0  0  0  0  0  0  0  0  0  0
  -10.4593   -0.7146    4.5089 C   0  0  0  0  0  0  0  0  0  0  0  0
  -10.4519   -2.1031    4.7020 C   0  0  0  0  0  0  0  0  0  0  0  0
  -11.7029   -2.8776    4.5451 C   0  0  0  0  0  0  0  0  0  0  0  0
  -12.5573   -3.1025    5.7600 C   0  0  0  0  0  0  0  0  0  0  0  0
  -13.6712   -3.7773    5.8814 N   0  0  0  0  0  0  0  0  0  0  0  0
  -14.0345   -3.6623    7.2160 C   0  0  0  0  0  0  0  0  0  0  0  0
  -15.1307   -4.1563    7.8373 C   0  0  0  0  0  0  0  0  0  0  0  0
  -15.2707   -3.8739    9.3023 C   0  0  0  0  0  0  0  0  0  0  0  0
  -15.5977   -2.5938    9.7746 C   0  0  0  0  0  0  0  0  0  0  0  0
  -15.7704   -1.5801    8.9129 F   0  0  0  0  0  0  0  0  0  0  0  0
  -15.7025   -2.3408   11.1395 C   0  0  0  0  0  0  0  0  0  0  0  0
  -15.9676   -1.0999   11.5710 F   0  0  0  0  0  0  0  0  0  0  0  0
  -15.5136   -3.3664   12.0539 C   0  0  0  0  0  0  0  0  0  0  0  0
  -15.6136   -3.1212   13.3676 F   0  0  0  0  0  0  0  0  0  0  0  0
  -15.2103   -4.6439   11.6071 C   0  0  0  0  0  0  0  0  0  0  0  0
  -15.0335   -5.6370   12.4895 F   0  0  0  0  0  0  0  0  0  0  0  0
  -15.0801   -4.8950   10.2441 C   0  0  0  0  0  0  0  0  0  0  0  0
  -14.7643   -6.1353    9.8425 F   0  0  0  0  0  0  0  0  0  0  0  0
  -16.1428   -4.9439    7.1883 C   0  0  0  0  0  0  0  0  0  0  0  0
  -17.3024   -5.4734    7.7251 C   0  0  0  0  0  0  0  0  0  0  0  0
  -17.9453   -6.2146    6.7273 C   0  0  0  0  0  0  0  0  0  0  0  0
  -17.2087   -6.1088    5.5580 C   0  0  0  0  0  0  0  0  0  0  0  0
  -16.1054   -5.3263    5.8556 N   0  0  0  0  0  0  0  0  0  0  0  0
  -17.4842   -6.6829    4.2659 C   0  0  0  0  0  0  0  0  0  0  0  0
  -18.7224   -7.5188    4.1277 C   0  0  0  0  0  0  0  0  0  0  0  0
  -18.6571   -8.9147    4.0128 C   0  0  0  0  0  0  0  0  0  0  0  0
  -17.4676   -9.5327    3.9609 F   0  0  0  0  0  0  0  0  0  0  0  0
  -19.8174   -9.6788    3.9185 C   0  0  0  0  0  0  0  0  0  0  0  0
  -19.7318  -11.0081    3.7708 F   0  0  0  0  0  0  0  0  0  0  0  0
  -21.0612   -9.0663    3.9667 C   0  0  0  0  0  0  0  0  0  0  0  0
  -22.1766   -9.8045    3.8844 F   0  0  0  0  0  0  0  0  0  0  0  0
  -21.1485   -7.6883    4.0940 C   0  0  0  0  0  0  0  0  0  0  0  0
  -22.3493   -7.0961    4.1529 F   0  0  0  0  0  0  0  0  0  0  0  0
  -19.9906   -6.9191    4.1623 C   0  0  0  0  0  0  0  0  0  0  0  0
  -20.1059   -5.5877    4.2782 F   0  0  0  0  0  0  0  0  0  0  0  0
  -16.7216   -6.5094    3.1583 C   0  0  0  0  0  0  0  0  0  0  0  0
  -15.5560   -5.7694    3.0060 N   0  0  0  0  0  0  0  0  0  0  0  0
  -15.1946   -5.9164    1.7544 C   0  0  0  0  0  0  0  0  0  0  0  0
  -14.0201   -5.3175    1.0244 C   0  0  0  0  0  0  0  0  0  0  0  0
  -13.8034   -5.5962   -0.4177 C   0  0  0  0  0  0  0  0  0  0  0  0
  -14.6584   -5.0617   -1.3908 C   0  0  0  0  0  0  0  0  0  0  0  0
  -15.6974   -4.2983   -1.0219 F   0  0  0  0  0  0  0  0  0  0  0  0
  -14.4737   -5.3432   -2.7428 C   0  0  0  0  0  0  0  0  0  0  0  0
  -15.3289   -4.8521   -3.6500 F   0  0  0  0  0  0  0  0  0  0  0  0
  -13.4169   -6.1444   -3.1489 C   0  0  0  0  0  0  0  0  0  0  0  0
  -13.2388   -6.4135   -4.4494 F   0  0  0  0  0  0  0  0  0  0  0  0
  -12.5507   -6.6741   -2.2043 C   0  0  0  0  0  0  0  0  0  0  0  0
  -11.5246   -7.4431   -2.5933 F   0  0  0  0  0  0  0  0  0  0  0  0
  -12.7483   -6.4122   -0.8504 C   0  0  0  0  0  0  0  0  0  0  0  0
  -11.9063   -6.9515    0.0432 F   0  0  0  0  0  0  0  0  0  0  0  0
  -13.1611   -4.5224    1.6908 C   0  0  0  0  0  0  0  0  0  0  0  0
  -11.9813   -3.8673    1.1266 C   0  0  0  0  0  0  0  0  0  0  0  0
  -11.3324   -3.2092    2.1035 C   0  0  0  0  0  0  0  0  0  0  0  0
  -12.0673   -3.3794    3.3538 C   0  0  0  0  0  0  0  0  0  0  0  0
  -13.1503   -4.1485    3.0107 N   0  0  0  0  0  0  0  0  0  0  0  0
  -16.0814   -6.7931    0.9753 C   0  0  0  0  0  0  0  0  0  0  0  0
  -17.0127   -7.0992    1.8682 C   0  0  0  0  0  0  0  0  0  0  0  0
  -13.0088   -2.8818    7.8728 C   0  0  0  0  0  0  0  0  0  0  0  0
  -12.0866   -2.4841    7.0104 C   0  0  0  0  0  0  0  0  0  0  0  0
   -9.3107   -2.7339    5.2256 C   0  0  0  0  0  0  0  0  0  0  0  0
   -8.2109   -1.9742    5.6219 C   0  0  0  0  0  0  0  0  0  0  0  0
   -1.6655   -0.7750   -1.6018 O   0  0  0  0  0  0  0  0  0  0  0  0
    0.8403   -3.4624    0.1155 H   0  0  0  0  0  0  0  0  0  0  0  0
    0.5488   -2.2737    1.3624 H   0  0  0  0  0  0  0  0  0  0  0  0
    2.0807   -2.3010    0.5225 H   0  0  0  0  0  0  0  0  0  0  0  0
    0.9134   -1.6450   -1.5898 H   0  0  0  0  0  0  0  0  0  0  0  0
    2.0761    1.8247   -1.1127 H   0  0  0  0  0  0  0  0  0  0  0  0
   -0.2507    2.5686   -1.3427 H   0  0  0  0  0  0  0  0  0  0  0  0
   -0.5715    1.2489   -2.4462 H   0  0  0  0  0  0  0  0  0  0  0  0
    1.3342    3.5317   -2.8907 H   0  0  0  0  0  0  0  0  0  0  0  0
   -0.1901    3.2473   -3.7236 H   0  0  0  0  0  0  0  0  0  0  0  0
    3.1600    2.0672   -3.3236 H   0  0  0  0  0  0  0  0  0  0  0  0
    2.9515    0.7774   -4.4934 H   0  0  0  0  0  0  0  0  0  0  0  0
    1.4399   -0.3800   -2.9880 H   0  0  0  0  0  0  0  0  0  0  0  0
    2.9583   -0.0688   -2.1785 H   0  0  0  0  0  0  0  0  0  0  0  0
   -1.6579   -3.5464    0.0699 H   0  0  0  0  0  0  0  0  0  0  0  0
   -4.0413   -2.8332   -0.8256 H   0  0  0  0  0  0  0  0  0  0  0  0
   -7.0360    0.3050   -1.2283 H   0  0  0  0  0  0  0  0  0  0  0  0
   -6.2934    0.6998   -2.8082 H   0  0  0  0  0  0  0  0  0  0  0  0
   -6.6095    2.6897   -1.5072 H   0  0  0  0  0  0  0  0  0  0  0  0
   -4.8874    2.3083   -1.7479 H   0  0  0  0  0  0  0  0  0  0  0  0
   -3.8525    2.5629    1.1549 H   0  0  0  0  0  0  0  0  0  0  0  0
   -3.6633    1.5860   -0.3137 H   0  0  0  0  0  0  0  0  0  0  0  0
   -3.9030    0.7298    2.3956 H   0  0  0  0  0  0  0  0  0  0  0  0
   -3.5331   -0.1909    0.9137 H   0  0  0  0  0  0  0  0  0  0  0  0
   -6.5993   -0.3527    3.1281 H   0  0  0  0  0  0  0  0  0  0  0  0
   -7.2703    0.4979    1.6297 H   0  0  0  0  0  0  0  0  0  0  0  0
   -7.0745    1.8007    3.7654 H   0  0  0  0  0  0  0  0  0  0  0  0
   -6.5087    2.4526    2.2020 H   0  0  0  0  0  0  0  0  0  0  0  0
   -5.8639    2.4881    5.3492 H   0  0  0  0  0  0  0  0  0  0  0  0
   -4.0985    2.5809    5.2170 H   0  0  0  0  0  0  0  0  0  0  0  0
   -4.6425    0.7303    6.6019 H   0  0  0  0  0  0  0  0  0  0  0  0
   -4.0493    0.1443    5.0272 H   0  0  0  0  0  0  0  0  0  0  0  0
   -9.3735    1.0722    4.7962 H   0  0  0  0  0  0  0  0  0  0  0  0
  -11.2717   -0.2579    4.0657 H   0  0  0  0  0  0  0  0  0  0  0  0
  -17.6356   -5.3443    8.6933 H   0  0  0  0  0  0  0  0  0  0  0  0
  -18.8202   -6.7497    6.8426 H   0  0  0  0  0  0  0  0  0  0  0  0
  -15.3993   -5.0783    5.2160 H   0  0  0  0  0  0  0  0  0  0  0  0
  -11.6928   -3.9042    0.1364 H   0  0  0  0  0  0  0  0  0  0  0  0
  -10.4587   -2.6722    1.9885 H   0  0  0  0  0  0  0  0  0  0  0  0
  -13.8525   -4.4073    3.6504 H   0  0  0  0  0  0  0  0  0  0  0  0
  -16.0002   -7.0920   -0.0091 H   0  0  0  0  0  0  0  0  0  0  0  0
  -17.8398   -7.6834    1.6691 H   0  0  0  0  0  0  0  0  0  0  0  0
  -12.9975   -2.6636    8.8814 H   0  0  0  0  0  0  0  0  0  0  0  0
  -11.2551   -1.8947    7.1723 H   0  0  0  0  0  0  0  0  0  0  0  0
   -9.2866   -3.7616    5.3170 H   0  0  0  0  0  0  0  0  0  0  0  0
   -7.3711   -2.4344    6.0067 H   0  0  0  0  0  0  0  0  0  0  0  0
  1 95  1  0  0  0  0
  1 96  1  0  0  0  0
  1 97  1  0  0  0  0
  2 10  1  0  0  0  0
  2  3  1  0  0  0  0
  2  1  1  0  0  0  0
  2 98  1  6  0  0  0
  3  4  1  0  0  0  0
  4  5  1  0  0  0  0
  4  9  1  0  0  0  0
  4 99  1  0  0  0  0
  5  6  1  0  0  0  0
  5100  1  0  0  0  0
  5101  1  0  0  0  0
  6  7  1  0  0  0  0
  6102  1  0  0  0  0
  6103  1  0  0  0  0
  7  8  1  0  0  0  0
  8  9  1  0  0  0  0
  8104  1  0  0  0  0
  8105  1  0  0  0  0
  9106  1  0  0  0  0
  9107  1  0  0  0  0
 10 11  2  0  0  0  0
 10 94  1  0  0  0  0
 11 12  1  0  0  0  0
 11108  1  0  0  0  0
 12 13  2  0  0  0  0
 12109  1  0  0  0  0
 13 14  1  0  0  0  0
 13 94  1  0  0  0  0
 14 15  2  0  0  0  0
 14 16  1  0  0  0  0
 16 17  1  0  0  0  0
 17 18  1  0  0  0  0
 17110  1  0  0  0  0
 17111  1  0  0  0  0
 18 19  1  0  0  0  0
 18112  1  0  0  0  0
 18113  1  0  0  0  0
 19 20  1  0  0  0  0
 20 21  1  0  0  0  0
 20114  1  0  0  0  0
 20115  1  0  0  0  0
 21 22  1  0  0  0  0
 21116  1  0  0  0  0
 21117  1  0  0  0  0
 22 23  1  0  0  0  0
 23 24  1  0  0  0  0
 23118  1  0  0  0  0
 23119  1  0  0  0  0
 24 25  1  0  0  0  0
 24120  1  0  0  0  0
 24121  1  0  0  0  0
 25 26  1  0  0  0  0
 26 27  1  0  0  0  0
 26122  1  0  0  0  0
 26123  1  0  0  0  0
 27 28  1  0  0  0  0
 27124  1  0  0  0  0
 27125  1  0  0  0  0
 28 29  1  0  0  0  0
 29 30  2  0  0  0  0
 29 31  1  0  0  0  0
 31 32  1  0  0  0  0
 31 93  2  0  0  0  0
 32 33  2  0  0  0  0
 32126  1  0  0  0  0
 33 34  1  0  0  0  0
 33127  1  0  0  0  0
 34 35  1  0  0  0  0
 34 92  2  0  0  0  0
 35 36  1  0  0  0  0
 35 86  2  0  0  0  0
 36 37  2  0  0  0  0
 36 91  1  0  0  0  0
 37 38  1  0  0  0  0
 38 39  2  0  0  0  0
 38 90  1  0  0  0  0
 39 40  1  0  0  0  0
 39 51  1  0  0  0  0
 40 41  1  0  0  0  0
 40 49  2  0  0  0  0
 41 42  1  0  0  0  0
 41 43  2  0  0  0  0
 43 44  1  0  0  0  0
 43 45  1  0  0  0  0
 45 46  1  0  0  0  0
 45 47  2  0  0  0  0
 47 48  1  0  0  0  0
 47 49  1  0  0  0  0
 49 50  1  0  0  0  0
 51 52  2  0  0  0  0
 51 55  1  0  0  0  0
 52 53  1  0  0  0  0
 52128  1  0  0  0  0
 53 54  2  0  0  0  0
 53129  1  0  0  0  0
 54 55  1  0  0  0  0
 54 56  1  0  0  0  0
 55130  1  0  0  0  0
 56 57  1  0  0  0  0
 56 68  2  0  0  0  0
 57 58  1  0  0  0  0
 57 66  2  0  0  0  0
 58 59  1  0  0  0  0
 58 60  2  0  0  0  0
 60 61  1  0  0  0  0
 60 62  1  0  0  0  0
 62 63  1  0  0  0  0
 62 64  2  0  0  0  0
 64 65  1  0  0  0  0
 64 66  1  0  0  0  0
 66 67  1  0  0  0  0
 68 69  1  0  0  0  0
 68 89  1  0  0  0  0
 69 70  2  0  0  0  0
 70 71  1  0  0  0  0
 70 88  1  0  0  0  0
 71 72  1  0  0  0  0
 71 83  2  0  0  0  0
 72 73  1  0  0  0  0
 72 81  2  0  0  0  0
 73 74  1  0  0  0  0
 73 75  2  0  0  0  0
 75 76  1  0  0  0  0
 75 77  1  0  0  0  0
 77 78  1  0  0  0  0
 77 79  2  0  0  0  0
 79 80  1  0  0  0  0
 79 81  1  0  0  0  0
 81 82  1  0  0  0  0
 83 84  1  0  0  0  0
 83 87  1  0  0  0  0
 84 85  2  0  0  0  0
 84131  1  0  0  0  0
 85 86  1  0  0  0  0
 85132  1  0  0  0  0
 86 87  1  0  0  0  0
 87133  1  0  0  0  0
 88 89  2  0  0  0  0
 88134  1  0  0  0  0
 89135  1  0  0  0  0
 90 91  2  0  0  0  0
 90136  1  0  0  0  0
 91137  1  0  0  0  0
 92 93  1  0  0  0  0
 92138  1  0  0  0  0
 93139  1  0  0  0  0
M  END
$$$$
