0_6_5479
 OpenBabel04152301373D

140150  0  0  1  0  0  0  0  0999 V2000
    1.8139   -0.1221   -0.8942 C   0  0  0  0  0  0  0  0  0  0  0  0
    0.7179    0.9154   -1.0467 C   0  0  0  0  0  0  0  0  0  0  0  0
   -0.4980    0.6252   -1.4219 N   0  0  0  0  0  0  0  0  0  0  0  0
   -0.7230   -0.6403   -1.9911 N   0  3  0  0  0  0  0  0  0  0  0  0
   -1.0465   -1.5918   -1.1824 C   0  0  0  0  0  0  0  0  0  0  0  0
   -1.0392   -1.5161    0.1634 N   0  0  0  0  0  0  0  0  0  0  0  0
   -1.1519   -2.6935    0.8433 C   0  0  0  0  0  0  0  0  0  0  0  0
   -0.6211   -2.9150    1.9242 O   0  0  0  0  0  0  0  0  0  0  0  0
   -1.8951   -3.7260    0.0233 C   0  0  1  0  0  0  0  0  0  0  0  0
   -3.4055   -3.6104    0.1591 C   0  0  0  0  0  0  0  0  0  0  0  0
   -4.0069   -4.2562    1.3870 C   0  0  0  0  0  0  0  0  0  0  0  0
   -4.7701   -5.2122    1.3247 O   0  0  0  0  0  0  0  0  0  0  0  0
   -3.7473   -3.5564    2.5218 O   0  0  0  0  0  0  0  0  0  0  0  0
   -4.6504   -3.8048    3.6198 C   0  0  0  0  0  0  0  0  0  0  0  0
   -4.8201   -2.5749    4.5282 C   0  0  0  0  0  0  0  0  0  0  0  0
   -5.4155   -1.3847    4.0095 O   0  0  0  0  0  0  0  0  0  0  0  0
   -5.2692   -1.0820    2.6312 C   0  0  0  0  0  0  0  0  0  0  0  0
   -3.9857   -0.3531    2.2262 C   0  0  0  0  0  0  0  0  0  0  0  0
   -2.7695   -1.0364    2.4764 O   0  0  0  0  0  0  0  0  0  0  0  0
   -2.0553   -0.8026    3.6908 C   0  0  0  0  0  0  0  0  0  0  0  0
   -2.2762    0.5352    4.3944 C   0  0  0  0  0  0  0  0  0  0  0  0
   -2.0754    1.7127    3.6087 O   0  0  0  0  0  0  0  0  0  0  0  0
   -1.0818    1.6867    2.5891 C   0  0  0  0  0  0  0  0  0  0  0  0
    0.3364    1.9715    3.0706 C   0  0  0  0  0  0  0  0  0  0  0  0
    0.8653    0.8811    3.8370 O   0  0  0  0  0  0  0  0  0  0  0  0
    0.8907    1.0956    5.1713 C   0  0  0  0  0  0  0  0  0  0  0  0
    0.5370    2.0945    5.7705 O   0  0  0  0  0  0  0  0  0  0  0  0
    1.3140   -0.1337    5.8605 C   0  0  0  0  0  0  0  0  0  0  0  0
    0.5950   -0.5177    6.9983 C   0  0  0  0  0  0  0  0  0  0  0  0
    1.0578   -1.5632    7.7887 C   0  0  0  0  0  0  0  0  0  0  0  0
    2.2518   -2.2109    7.4493 C   0  0  0  0  0  0  0  0  0  0  0  0
    2.9013   -3.1008    8.4350 C   0  0  0  0  0  0  0  0  0  0  0  0
    4.0151   -2.5440    9.2757 C   0  0  0  0  0  0  0  0  0  0  0  0
    4.7803   -3.1459   10.1486 N   0  0  0  0  0  0  0  0  0  0  0  0
    5.6502   -2.1713   10.6201 C   0  0  0  0  0  0  0  0  0  0  0  0
    6.6161   -2.2916   11.5609 C   0  0  0  0  0  0  0  0  0  0  0  0
    7.4398   -1.0756   11.8713 C   0  0  0  0  0  0  0  0  0  0  0  0
    6.9033    0.0291   12.5500 C   0  0  0  0  0  0  0  0  0  0  0  0
    5.6101    0.0396   12.9070 F   0  0  0  0  0  0  0  0  0  0  0  0
    7.6844    1.1487   12.8274 C   0  0  0  0  0  0  0  0  0  0  0  0
    7.1374    2.2123   13.4323 F   0  0  0  0  0  0  0  0  0  0  0  0
    9.0228    1.1715   12.4650 C   0  0  0  0  0  0  0  0  0  0  0  0
    9.7747    2.2467   12.7383 F   0  0  0  0  0  0  0  0  0  0  0  0
    9.5793    0.0828   11.8116 C   0  0  0  0  0  0  0  0  0  0  0  0
   10.8753    0.0981   11.4700 F   0  0  0  0  0  0  0  0  0  0  0  0
    8.7936   -1.0251   11.5055 C   0  0  0  0  0  0  0  0  0  0  0  0
    9.3574   -2.0539   10.8549 F   0  0  0  0  0  0  0  0  0  0  0  0
    6.9128   -3.5183   12.2516 C   0  0  0  0  0  0  0  0  0  0  0  0
    7.8614   -3.7515   13.2306 C   0  0  0  0  0  0  0  0  0  0  0  0
    7.8221   -5.1104   13.5593 C   0  0  0  0  0  0  0  0  0  0  0  0
    6.8077   -5.7113   12.8302 C   0  0  0  0  0  0  0  0  0  0  0  0
    6.2632   -4.7241   12.0262 N   0  0  0  0  0  0  0  0  0  0  0  0
    6.3708   -7.0844   12.8643 C   0  0  0  0  0  0  0  0  0  0  0  0
    7.0681   -8.0074   13.8214 C   0  0  0  0  0  0  0  0  0  0  0  0
    7.9346   -9.0163   13.3772 C   0  0  0  0  0  0  0  0  0  0  0  0
    8.1155   -9.2211   12.0638 F   0  0  0  0  0  0  0  0  0  0  0  0
    8.5909   -9.8447   14.2838 C   0  0  0  0  0  0  0  0  0  0  0  0
    9.3775  -10.8332   13.8365 F   0  0  0  0  0  0  0  0  0  0  0  0
    8.4229   -9.6569   15.6479 C   0  0  0  0  0  0  0  0  0  0  0  0
    9.0639  -10.4487   16.5185 F   0  0  0  0  0  0  0  0  0  0  0  0
    7.5859   -8.6528   16.1093 C   0  0  0  0  0  0  0  0  0  0  0  0
    7.4350   -8.4586   17.4267 F   0  0  0  0  0  0  0  0  0  0  0  0
    6.9031   -7.8443   15.2059 C   0  0  0  0  0  0  0  0  0  0  0  0
    6.0922   -6.8876   15.6824 F   0  0  0  0  0  0  0  0  0  0  0  0
    5.3610   -7.6034   12.1225 C   0  0  0  0  0  0  0  0  0  0  0  0
    4.5310   -6.9707   11.2063 N   0  0  0  0  0  0  0  0  0  0  0  0
    3.7205   -7.8964   10.7515 C   0  0  0  0  0  0  0  0  0  0  0  0
    2.5919   -7.7718    9.7606 C   0  0  0  0  0  0  0  0  0  0  0  0
    1.7818   -8.9540    9.3686 C   0  0  0  0  0  0  0  0  0  0  0  0
    0.9234   -9.5786   10.2833 C   0  0  0  0  0  0  0  0  0  0  0  0
    0.8348   -9.1181   11.5398 F   0  0  0  0  0  0  0  0  0  0  0  0
    0.1845  -10.7042    9.9241 C   0  0  0  0  0  0  0  0  0  0  0  0
   -0.5930  -11.3097   10.8321 F   0  0  0  0  0  0  0  0  0  0  0  0
    0.2654  -11.2083    8.6347 C   0  0  0  0  0  0  0  0  0  0  0  0
   -0.4486  -12.2881    8.2890 F   0  0  0  0  0  0  0  0  0  0  0  0
    1.0942  -10.5965    7.7069 C   0  0  0  0  0  0  0  0  0  0  0  0
    1.1657  -11.0716    6.4560 F   0  0  0  0  0  0  0  0  0  0  0  0
    1.8559   -9.4894    8.0738 C   0  0  0  0  0  0  0  0  0  0  0  0
    2.6621   -8.9293    7.1600 F   0  0  0  0  0  0  0  0  0  0  0  0
    2.3300   -6.5677    9.2182 C   0  0  0  0  0  0  0  0  0  0  0  0
    1.2819   -6.2745    8.2426 C   0  0  0  0  0  0  0  0  0  0  0  0
    1.3896   -4.9923    7.8549 C   0  0  0  0  0  0  0  0  0  0  0  0
    2.4909   -4.3700    8.5860 C   0  0  0  0  0  0  0  0  0  0  0  0
    2.9653   -5.3653    9.3999 N   0  0  0  0  0  0  0  0  0  0  0  0
    3.9691   -9.2338   11.3064 C   0  0  0  0  0  0  0  0  0  0  0  0
    4.9494   -8.9916   12.1652 C   0  0  0  0  0  0  0  0  0  0  0  0
    5.3404   -0.9457    9.9182 C   0  0  0  0  0  0  0  0  0  0  0  0
    4.3091   -1.1112    9.1042 C   0  0  0  0  0  0  0  0  0  0  0  0
    2.9245   -1.8770    6.2608 C   0  0  0  0  0  0  0  0  0  0  0  0
    2.4576   -0.8318    5.4643 C   0  0  0  0  0  0  0  0  0  0  0  0
   -1.4404   -3.2085   -1.7008 S   0  0  0  0  0  0  0  0  0  0  0  0
    1.0263    2.3363   -0.6393 C   0  0  0  0  0  0  0  0  0  0  0  0
    0.0202    3.3134   -0.7232 C   0  0  0  0  0  0  0  0  0  0  0  0
    0.2670    4.6333   -0.3236 C   0  0  0  0  0  0  0  0  0  0  0  0
    1.5251    4.9881    0.1544 C   0  0  0  0  0  0  0  0  0  0  0  0
    1.8627    6.7648    0.7015 Br  0  0  0  0  0  0  0  0  0  0  0  0
    2.5381    4.0368    0.2339 C   0  0  0  0  0  0  0  0  0  0  0  0
    2.2903    2.7163   -0.1621 C   0  0  0  0  0  0  0  0  0  0  0  0
    1.4513   -1.0745   -1.2204 H   0  0  0  0  0  0  0  0  0  0  0  0
    2.1056   -0.1843    0.1334 H   0  0  0  0  0  0  0  0  0  0  0  0
    2.6579    0.1607   -1.4881 H   0  0  0  0  0  0  0  0  0  0  0  0
   -0.6378   -0.7930   -2.9599 H   0  0  0  0  0  0  0  0  0  0  0  0
   -0.9567   -0.6543    0.6322 H   0  0  0  0  0  0  0  0  0  0  0  0
   -1.6470   -4.7265    0.3104 H   0  0  0  0  0  0  0  0  0  0  0  0
   -3.8484   -4.0660   -0.7018 H   0  0  0  0  0  0  0  0  0  0  0  0
   -3.6099   -2.5642    0.2513 H   0  0  0  0  0  0  0  0  0  0  0  0
   -4.2658   -4.6139    4.2049 H   0  0  0  0  0  0  0  0  0  0  0  0
   -5.6090   -4.0408    3.2072 H   0  0  0  0  0  0  0  0  0  0  0  0
   -3.8431   -2.3074    4.8729 H   0  0  0  0  0  0  0  0  0  0  0  0
   -5.5252   -2.9048    5.2623 H   0  0  0  0  0  0  0  0  0  0  0  0
   -6.0968   -0.4679    2.3433 H   0  0  0  0  0  0  0  0  0  0  0  0
   -5.2262   -2.0293    2.1355 H   0  0  0  0  0  0  0  0  0  0  0  0
   -3.9548    0.5736    2.7603 H   0  0  0  0  0  0  0  0  0  0  0  0
   -4.0405   -0.2487    1.1627 H   0  0  0  0  0  0  0  0  0  0  0  0
   -1.0115   -0.8788    3.4681 H   0  0  0  0  0  0  0  0  0  0  0  0
   -2.4331   -1.5346    4.3737 H   0  0  0  0  0  0  0  0  0  0  0  0
   -1.6029    0.5803    5.2248 H   0  0  0  0  0  0  0  0  0  0  0  0
   -3.3127    0.5466    4.6598 H   0  0  0  0  0  0  0  0  0  0  0  0
   -1.3383    2.4223    1.8556 H   0  0  0  0  0  0  0  0  0  0  0  0
   -1.0737    0.6892    2.2020 H   0  0  0  0  0  0  0  0  0  0  0  0
    0.3256    2.8508    3.6803 H   0  0  0  0  0  0  0  0  0  0  0  0
    0.9592    2.1083    2.2114 H   0  0  0  0  0  0  0  0  0  0  0  0
   -0.2767   -0.0258    7.2498 H   0  0  0  0  0  0  0  0  0  0  0  0
    0.5245   -1.8603    8.6208 H   0  0  0  0  0  0  0  0  0  0  0  0
    8.4891   -3.0456   13.6463 H   0  0  0  0  0  0  0  0  0  0  0  0
    8.4439   -5.5859   14.2318 H   0  0  0  0  0  0  0  0  0  0  0  0
    5.5247   -4.8577   11.3890 H   0  0  0  0  0  0  0  0  0  0  0  0
    0.5730   -6.9445    7.9056 H   0  0  0  0  0  0  0  0  0  0  0  0
    0.7924   -4.5240    7.1555 H   0  0  0  0  0  0  0  0  0  0  0  0
    3.6911   -5.2307   10.0513 H   0  0  0  0  0  0  0  0  0  0  0  0
    3.5028  -10.1275   11.0855 H   0  0  0  0  0  0  0  0  0  0  0  0
    5.3668   -9.7025   12.7860 H   0  0  0  0  0  0  0  0  0  0  0  0
    5.8551   -0.0590   10.0361 H   0  0  0  0  0  0  0  0  0  0  0  0
    3.8350   -0.4170    8.5056 H   0  0  0  0  0  0  0  0  0  0  0  0
    3.7643   -2.4057    5.9776 H   0  0  0  0  0  0  0  0  0  0  0  0
    2.9502   -0.5774    4.5939 H   0  0  0  0  0  0  0  0  0  0  0  0
   -0.9119    3.0557   -1.0835 H   0  0  0  0  0  0  0  0  0  0  0  0
   -0.4821    5.3406   -0.3835 H   0  0  0  0  0  0  0  0  0  0  0  0
    3.4712    4.3042    0.5844 H   0  0  0  0  0  0  0  0  0  0  0  0
    3.0453    2.0153   -0.1023 H   0  0  0  0  0  0  0  0  0  0  0  0
  1  2  1  0  0  0  0
  1 99  1  0  0  0  0
  1100  1  0  0  0  0
  1101  1  0  0  0  0
  2  3  2  0  0  0  0
  2 92  1  0  0  0  0
  3  4  1  0  0  0  0
  4  5  2  0  0  0  0
  4102  1  0  0  0  0
  5  6  1  0  0  0  0
  5 91  1  0  0  0  0
  6  7  1  0  0  0  0
  6103  1  0  0  0  0
  7  8  2  0  0  0  0
  7  9  1  0  0  0  0
  9 91  1  0  0  0  0
  9 10  1  0  0  0  0
  9104  1  1  0  0  0
 10 11  1  0  0  0  0
 10105  1  0  0  0  0
 10106  1  0  0  0  0
 11 12  2  0  0  0  0
 11 13  1  0  0  0  0
 13 14  1  0  0  0  0
 14 15  1  0  0  0  0
 14107  1  0  0  0  0
 14108  1  0  0  0  0
 15 16  1  0  0  0  0
 15109  1  0  0  0  0
 15110  1  0  0  0  0
 16 17  1  0  0  0  0
 17 18  1  0  0  0  0
 17111  1  0  0  0  0
 17112  1  0  0  0  0
 18 19  1  0  0  0  0
 18113  1  0  0  0  0
 18114  1  0  0  0  0
 19 20  1  0  0  0  0
 20 21  1  0  0  0  0
 20115  1  0  0  0  0
 20116  1  0  0  0  0
 21 22  1  0  0  0  0
 21117  1  0  0  0  0
 21118  1  0  0  0  0
 22 23  1  0  0  0  0
 23 24  1  0  0  0  0
 23119  1  0  0  0  0
 23120  1  0  0  0  0
 24 25  1  0  0  0  0
 24121  1  0  0  0  0
 24122  1  0  0  0  0
 25 26  1  0  0  0  0
 26 27  2  0  0  0  0
 26 28  1  0  0  0  0
 28 29  1  0  0  0  0
 28 90  2  0  0  0  0
 29 30  2  0  0  0  0
 29123  1  0  0  0  0
 30 31  1  0  0  0  0
 30124  1  0  0  0  0
 31 32  1  0  0  0  0
 31 89  2  0  0  0  0
 32 33  1  0  0  0  0
 32 83  2  0  0  0  0
 33 34  2  0  0  0  0
 33 88  1  0  0  0  0
 34 35  1  0  0  0  0
 35 36  2  0  0  0  0
 35 87  1  0  0  0  0
 36 37  1  0  0  0  0
 36 48  1  0  0  0  0
 37 38  1  0  0  0  0
 37 46  2  0  0  0  0
 38 39  1  0  0  0  0
 38 40  2  0  0  0  0
 40 41  1  0  0  0  0
 40 42  1  0  0  0  0
 42 43  1  0  0  0  0
 42 44  2  0  0  0  0
 44 45  1  0  0  0  0
 44 46  1  0  0  0  0
 46 47  1  0  0  0  0
 48 49  2  0  0  0  0
 48 52  1  0  0  0  0
 49 50  1  0  0  0  0
 49125  1  0  0  0  0
 50 51  2  0  0  0  0
 50126  1  0  0  0  0
 51 52  1  0  0  0  0
 51 53  1  0  0  0  0
 52127  1  0  0  0  0
 53 54  1  0  0  0  0
 53 65  2  0  0  0  0
 54 55  1  0  0  0  0
 54 63  2  0  0  0  0
 55 56  1  0  0  0  0
 55 57  2  0  0  0  0
 57 58  1  0  0  0  0
 57 59  1  0  0  0  0
 59 60  1  0  0  0  0
 59 61  2  0  0  0  0
 61 62  1  0  0  0  0
 61 63  1  0  0  0  0
 63 64  1  0  0  0  0
 65 66  1  0  0  0  0
 65 86  1  0  0  0  0
 66 67  2  0  0  0  0
 67 68  1  0  0  0  0
 67 85  1  0  0  0  0
 68 69  1  0  0  0  0
 68 80  2  0  0  0  0
 69 70  1  0  0  0  0
 69 78  2  0  0  0  0
 70 71  1  0  0  0  0
 70 72  2  0  0  0  0
 72 73  1  0  0  0  0
 72 74  1  0  0  0  0
 74 75  1  0  0  0  0
 74 76  2  0  0  0  0
 76 77  1  0  0  0  0
 76 78  1  0  0  0  0
 78 79  1  0  0  0  0
 80 81  1  0  0  0  0
 80 84  1  0  0  0  0
 81 82  2  0  0  0  0
 81128  1  0  0  0  0
 82 83  1  0  0  0  0
 82129  1  0  0  0  0
 83 84  1  0  0  0  0
 84130  1  0  0  0  0
 85 86  2  0  0  0  0
 85131  1  0  0  0  0
 86132  1  0  0  0  0
 87 88  2  0  0  0  0
 87133  1  0  0  0  0
 88134  1  0  0  0  0
 89 90  1  0  0  0  0
 89135  1  0  0  0  0
 90136  1  0  0  0  0
 92 93  1  0  0  0  0
 92 98  2  0  0  0  0
 93 94  2  0  0  0  0
 93137  1  0  0  0  0
 94 95  1  0  0  0  0
 94138  1  0  0  0  0
 95 96  1  0  0  0  0
 95 97  2  0  0  0  0
 97 98  1  0  0  0  0
 97139  1  0  0  0  0
 98140  1  0  0  0  0
M  CHG  1   4   1
M  END
$$$$
