0_6_1112
 OpenBabel04152301373D

158169  0  0  1  0  0  0  0  0999 V2000
    2.4464    0.6514   -0.8730 C   0  0  0  0  0  0  0  0  0  0  0  0
    1.9215   -0.0245   -2.1108 C   0  0  0  0  0  0  0  0  0  0  0  0
    2.4913   -1.2964   -2.7227 C   0  0  0  0  0  0  0  0  0  0  0  0
    2.0339   -1.5819   -3.8439 O   0  0  0  0  0  0  0  0  0  0  0  0
    3.3751   -2.1738   -2.0956 N   0  0  0  0  0  0  0  0  0  0  0  0
    3.7321   -3.3108   -2.9504 C   0  0  0  0  0  0  0  0  0  0  0  0
    4.6581   -4.3341   -2.3444 C   0  0  0  0  0  0  0  0  0  0  0  0
    5.7700   -3.5986   -1.6088 C   0  0  0  0  0  0  0  0  0  0  0  0
    5.2274   -2.9157   -0.3553 C   0  0  2  0  0  0  0  0  0  0  0  0
    6.2079   -2.1571    0.6098 C   0  0  0  0  0  0  0  0  0  0  0  0
    7.3677   -1.2965    0.1111 C   0  0  1  0  0  0  0  0  0  0  0  0
    8.4261   -2.0258   -0.6789 C   0  0  0  0  0  0  0  0  0  0  0  0
    8.0837   -1.5063   -2.0264 C   0  0  0  0  0  0  0  0  0  0  0  0
    8.5543   -2.1655   -3.2582 C   0  0  0  0  0  0  0  0  0  0  0  0
    8.4997   -3.5583   -3.3832 C   0  0  0  0  0  0  0  0  0  0  0  0
    8.7536   -4.1664   -4.6075 C   0  0  0  0  0  0  0  0  0  0  0  0
    9.1506   -3.3939   -5.6989 C   0  0  0  0  0  0  0  0  0  0  0  0
    9.5298   -4.0652   -6.9831 C   0  0  0  0  0  0  0  0  0  0  0  0
    9.2599   -2.0030   -5.5544 C   0  0  0  0  0  0  0  0  0  0  0  0
    8.9266   -1.3845   -4.3477 C   0  0  0  0  0  0  0  0  0  0  0  0
    7.3054   -0.4704   -2.0378 N   0  0  0  0  0  0  0  0  0  0  0  0
    6.9296   -0.2084   -0.7017 O   0  0  0  0  0  0  0  0  0  0  0  0
    4.9004   -4.1365    0.5107 C   0  0  0  0  0  0  0  0  0  0  0  0
    5.7478   -4.9951    0.7625 O   0  0  0  0  0  0  0  0  0  0  0  0
    3.6305   -4.2077    0.9142 O   0  0  0  0  0  0  0  0  0  0  0  0
    3.2748   -5.5004    1.4221 C   0  0  0  0  0  0  0  0  0  0  0  0
    1.8539   -5.8021    1.0109 C   0  0  0  0  0  0  0  0  0  0  0  0
    1.7897   -5.7490   -0.4096 O   0  0  0  0  0  0  0  0  0  0  0  0
    0.7700   -4.8729   -0.8995 C   0  0  0  0  0  0  0  0  0  0  0  0
    0.9691   -3.3931   -0.5480 C   0  0  0  0  0  0  0  0  0  0  0  0
    0.1481   -2.9759    0.5404 O   0  0  0  0  0  0  0  0  0  0  0  0
   -0.4878   -1.7123    0.3436 C   0  0  0  0  0  0  0  0  0  0  0  0
   -1.4429   -1.6667   -0.8531 C   0  0  0  0  0  0  0  0  0  0  0  0
   -1.6397   -2.9903   -1.3289 O   0  0  0  0  0  0  0  0  0  0  0  0
   -2.4201   -3.1147   -2.5039 C   0  0  0  0  0  0  0  0  0  0  0  0
   -3.9016   -2.8966   -2.1997 C   0  0  0  0  0  0  0  0  0  0  0  0
   -4.2423   -3.6744   -1.0302 O   0  0  0  0  0  0  0  0  0  0  0  0
   -4.4924   -2.9611    0.0918 C   0  0  0  0  0  0  0  0  0  0  0  0
   -5.1184   -1.8911    0.1278 O   0  0  0  0  0  0  0  0  0  0  0  0
   -3.7040   -3.4689    1.2486 C   0  0  0  0  0  0  0  0  0  0  0  0
   -3.6397   -2.7228    2.4411 C   0  0  0  0  0  0  0  0  0  0  0  0
   -2.6237   -2.9565    3.3901 C   0  0  0  0  0  0  0  0  0  0  0  0
   -1.6477   -3.9248    3.1402 C   0  0  0  0  0  0  0  0  0  0  0  0
   -0.3239   -4.0136    3.8187 C   0  0  0  0  0  0  0  0  0  0  0  0
    0.3034   -5.3605    4.1369 C   0  0  0  0  0  0  0  0  0  0  0  0
    1.5268   -5.5640    4.5309 N   0  0  0  0  0  0  0  0  0  0  0  0
    1.8024   -6.9199    4.4423 C   0  0  0  0  0  0  0  0  0  0  0  0
    3.0961   -7.3746    4.3833 C   0  0  0  0  0  0  0  0  0  0  0  0
    3.5314   -8.7476    3.8327 C   0  0  0  0  0  0  0  0  0  0  0  0
    4.8657   -9.2005    3.9914 C   0  0  0  0  0  0  0  0  0  0  0  0
    5.7320   -8.5382    4.7708 F   0  0  0  0  0  0  0  0  0  0  0  0
    5.3693  -10.3446    3.3504 C   0  0  0  0  0  0  0  0  0  0  0  0
    6.6664  -10.6634    3.4716 F   0  0  0  0  0  0  0  0  0  0  0  0
    4.5448  -11.1395    2.5837 C   0  0  0  0  0  0  0  0  0  0  0  0
    5.0184  -12.2387    1.9800 F   0  0  0  0  0  0  0  0  0  0  0  0
    3.2245  -10.7745    2.4392 C   0  0  0  0  0  0  0  0  0  0  0  0
    2.3992  -11.5448    1.7141 F   0  0  0  0  0  0  0  0  0  0  0  0
    2.7413   -9.5871    3.0137 C   0  0  0  0  0  0  0  0  0  0  0  0
    1.4873   -9.2687    2.6761 F   0  0  0  0  0  0  0  0  0  0  0  0
    4.0909   -6.3273    4.6909 C   0  0  0  0  0  0  0  0  0  0  0  0
    5.2747   -5.9104    4.0988 C   0  0  0  0  0  0  0  0  0  0  0  0
    5.6617   -4.6778    4.6920 C   0  0  0  0  0  0  0  0  0  0  0  0
    4.7837   -4.4032    5.7247 C   0  0  0  0  0  0  0  0  0  0  0  0
    3.8502   -5.4168    5.7199 N   0  0  0  0  0  0  0  0  0  0  0  0
    4.8071   -3.4273    6.8007 C   0  0  0  0  0  0  0  0  0  0  0  0
    5.3123   -3.8822    8.1517 C   0  0  0  0  0  0  0  0  0  0  0  0
    4.8430   -3.3424    9.3612 C   0  0  0  0  0  0  0  0  0  0  0  0
    3.9671   -2.3286    9.3789 F   0  0  0  0  0  0  0  0  0  0  0  0
    5.2065   -3.8753   10.5993 C   0  0  0  0  0  0  0  0  0  0  0  0
    4.7573   -3.3002   11.7234 F   0  0  0  0  0  0  0  0  0  0  0  0
    5.9912   -5.0101   10.6736 C   0  0  0  0  0  0  0  0  0  0  0  0
    6.2937   -5.5470   11.8628 F   0  0  0  0  0  0  0  0  0  0  0  0
    6.4392   -5.5991    9.5097 C   0  0  0  0  0  0  0  0  0  0  0  0
    7.1541   -6.7320    9.5645 F   0  0  0  0  0  0  0  0  0  0  0  0
    6.1272   -5.0344    8.2734 C   0  0  0  0  0  0  0  0  0  0  0  0
    6.6158   -5.6659    7.1964 F   0  0  0  0  0  0  0  0  0  0  0  0
    4.3597   -2.1664    6.5260 C   0  0  0  0  0  0  0  0  0  0  0  0
    3.5345   -1.8812    5.4736 N   0  0  0  0  0  0  0  0  0  0  0  0
    3.0453   -0.6710    5.6106 C   0  0  0  0  0  0  0  0  0  0  0  0
    1.9374   -0.0975    4.7386 C   0  0  0  0  0  0  0  0  0  0  0  0
    0.8972    0.9293    5.0443 C   0  0  0  0  0  0  0  0  0  0  0  0
    0.7712    1.8845    4.0125 C   0  0  0  0  0  0  0  0  0  0  0  0
    1.8736    2.3528    3.4051 F   0  0  0  0  0  0  0  0  0  0  0  0
   -0.4670    2.1337    3.4269 C   0  0  0  0  0  0  0  0  0  0  0  0
   -0.5335    2.8249    2.2797 F   0  0  0  0  0  0  0  0  0  0  0  0
   -1.6036    1.5274    3.9367 C   0  0  0  0  0  0  0  0  0  0  0  0
   -2.7572    1.5927    3.2562 F   0  0  0  0  0  0  0  0  0  0  0  0
   -1.5222    0.7746    5.1024 C   0  0  0  0  0  0  0  0  0  0  0  0
   -2.6218    0.1637    5.5675 F   0  0  0  0  0  0  0  0  0  0  0  0
   -0.2795    0.5111    5.6873 C   0  0  0  0  0  0  0  0  0  0  0  0
   -0.2150   -0.3530    6.7104 F   0  0  0  0  0  0  0  0  0  0  0  0
    1.5440   -0.8960    3.7003 C   0  0  0  0  0  0  0  0  0  0  0  0
    2.4470   -1.8448    3.1231 C   0  0  0  0  0  0  0  0  0  0  0  0
    1.8991   -3.0443    3.3227 C   0  0  0  0  0  0  0  0  0  0  0  0
    0.5005   -2.9373    3.7151 C   0  0  0  0  0  0  0  0  0  0  0  0
    0.2940   -1.5569    3.6962 N   0  0  0  0  0  0  0  0  0  0  0  0
    3.6756    0.0441    6.7188 C   0  0  0  0  0  0  0  0  0  0  0  0
    4.4771   -0.9062    7.2324 C   0  0  0  0  0  0  0  0  0  0  0  0
    0.5105   -7.5329    4.2662 C   0  0  0  0  0  0  0  0  0  0  0  0
   -0.4450   -6.6182    4.0576 C   0  0  0  0  0  0  0  0  0  0  0  0
   -1.8058   -4.7352    1.9979 C   0  0  0  0  0  0  0  0  0  0  0  0
   -2.8256   -4.5336    1.0748 C   0  0  0  0  0  0  0  0  0  0  0  0
    4.1136   -1.9259   -0.8231 C   0  0  0  0  0  0  0  0  0  0  0  0
    1.8615    1.5235   -0.6676 H   0  0  0  0  0  0  0  0  0  0  0  0
    3.4668    0.9344   -1.0266 H   0  0  0  0  0  0  0  0  0  0  0  0
    2.3841   -0.0231   -0.0447 H   0  0  0  0  0  0  0  0  0  0  0  0
    1.9780    0.7133   -2.8837 H   0  0  0  0  0  0  0  0  0  0  0  0
    0.9844   -0.3905   -1.7464 H   0  0  0  0  0  0  0  0  0  0  0  0
    4.2041   -2.9232   -3.8290 H   0  0  0  0  0  0  0  0  0  0  0  0
    2.8145   -3.8291   -3.1355 H   0  0  0  0  0  0  0  0  0  0  0  0
    5.0776   -4.9444   -3.1167 H   0  0  0  0  0  0  0  0  0  0  0  0
    4.1195   -4.9613   -1.6651 H   0  0  0  0  0  0  0  0  0  0  0  0
    6.1911   -2.8591   -2.2574 H   0  0  0  0  0  0  0  0  0  0  0  0
    6.5179   -4.3067   -1.3187 H   0  0  0  0  0  0  0  0  0  0  0  0
    6.6453   -2.9074    1.2348 H   0  0  0  0  0  0  0  0  0  0  0  0
    5.5607   -1.4182    1.0342 H   0  0  0  0  0  0  0  0  0  0  0  0
    7.8034   -0.9569    1.0275 H   0  0  0  0  0  0  0  0  0  0  0  0
    8.3170   -3.0884   -0.6158 H   0  0  0  0  0  0  0  0  0  0  0  0
    9.4359   -1.8699   -0.3613 H   0  0  0  0  0  0  0  0  0  0  0  0
    8.2694   -4.1380   -2.5610 H   0  0  0  0  0  0  0  0  0  0  0  0
    8.6485   -5.1880   -4.7086 H   0  0  0  0  0  0  0  0  0  0  0  0
    9.3759   -5.1202   -6.8930 H   0  0  0  0  0  0  0  0  0  0  0  0
   10.5605   -3.8720   -7.1958 H   0  0  0  0  0  0  0  0  0  0  0  0
    8.9239   -3.6829   -7.7779 H   0  0  0  0  0  0  0  0  0  0  0  0
    9.5899   -1.4312   -6.3476 H   0  0  0  0  0  0  0  0  0  0  0  0
    8.9562   -0.3563   -4.2647 H   0  0  0  0  0  0  0  0  0  0  0  0
    3.3497   -5.5020    2.4895 H   0  0  0  0  0  0  0  0  0  0  0  0
    3.9361   -6.2437    1.0284 H   0  0  0  0  0  0  0  0  0  0  0  0
    1.1912   -5.0753    1.4323 H   0  0  0  0  0  0  0  0  0  0  0  0
    1.5616   -6.7698    1.3616 H   0  0  0  0  0  0  0  0  0  0  0  0
   -0.1661   -5.1894   -0.4890 H   0  0  0  0  0  0  0  0  0  0  0  0
    0.8062   -4.9362   -1.9670 H   0  0  0  0  0  0  0  0  0  0  0  0
    0.7284   -2.8010   -1.4062 H   0  0  0  0  0  0  0  0  0  0  0  0
    1.9897   -3.2629   -0.2543 H   0  0  0  0  0  0  0  0  0  0  0  0
    0.2724   -0.9743    0.1939 H   0  0  0  0  0  0  0  0  0  0  0  0
   -1.0801   -1.5283    1.2155 H   0  0  0  0  0  0  0  0  0  0  0  0
   -1.0192   -1.0643   -1.6293 H   0  0  0  0  0  0  0  0  0  0  0  0
   -2.3795   -1.2428   -0.5563 H   0  0  0  0  0  0  0  0  0  0  0  0
   -2.2866   -4.0952   -2.9110 H   0  0  0  0  0  0  0  0  0  0  0  0
   -2.1022   -2.3723   -3.2058 H   0  0  0  0  0  0  0  0  0  0  0  0
   -4.4931   -3.2163   -3.0321 H   0  0  0  0  0  0  0  0  0  0  0  0
   -4.0933   -1.8590   -2.0220 H   0  0  0  0  0  0  0  0  0  0  0  0
   -4.3471   -1.9938    2.6231 H   0  0  0  0  0  0  0  0  0  0  0  0
   -2.6008   -2.4136    4.2675 H   0  0  0  0  0  0  0  0  0  0  0  0
    5.7867   -6.4099    3.3549 H   0  0  0  0  0  0  0  0  0  0  0  0
    6.4591   -4.0901    4.4024 H   0  0  0  0  0  0  0  0  0  0  0  0
    3.1072   -5.4892    6.3617 H   0  0  0  0  0  0  0  0  0  0  0  0
    3.3408   -1.6419    2.6487 H   0  0  0  0  0  0  0  0  0  0  0  0
    2.4037   -3.9378    3.2127 H   0  0  0  0  0  0  0  0  0  0  0  0
   -0.5846   -1.1129    3.6822 H   0  0  0  0  0  0  0  0  0  0  0  0
    3.5412    1.0201    7.0260 H   0  0  0  0  0  0  0  0  0  0  0  0
    5.1043   -0.7552    8.0379 H   0  0  0  0  0  0  0  0  0  0  0  0
    0.3424   -8.5506    4.2970 H   0  0  0  0  0  0  0  0  0  0  0  0
   -1.4522   -6.7622    3.8849 H   0  0  0  0  0  0  0  0  0  0  0  0
   -1.1394   -5.5074    1.8408 H   0  0  0  0  0  0  0  0  0  0  0  0
   -2.9301   -5.1682    0.2677 H   0  0  0  0  0  0  0  0  0  0  0  0
    3.3816   -1.8952   -0.0433 H   0  0  0  0  0  0  0  0  0  0  0  0
    4.6567   -1.0269   -1.0277 H   0  0  0  0  0  0  0  0  0  0  0  0
  1  2  1  0  0  0  0
  1104  1  0  0  0  0
  1105  1  0  0  0  0
  1106  1  0  0  0  0
  2  3  1  0  0  0  0
  2107  1  0  0  0  0
  2108  1  0  0  0  0
  3  4  2  0  0  0  0
  3  5  1  0  0  0  0
  5  6  1  0  0  0  0
  5103  1  0  0  0  0
  6  7  1  0  0  0  0
  6109  1  0  0  0  0
  6110  1  0  0  0  0
  7  8  1  0  0  0  0
  7111  1  0  0  0  0
  7112  1  0  0  0  0
  8  9  1  0  0  0  0
  8113  1  0  0  0  0
  8114  1  0  0  0  0
  9103  1  0  0  0  0
  9 23  1  1  0  0  0
  9 10  1  0  0  0  0
 10 11  1  0  0  0  0
 10115  1  0  0  0  0
 10116  1  0  0  0  0
 11 12  1  0  0  0  0
 11 22  1  0  0  0  0
 11117  1  1  0  0  0
 12 13  1  0  0  0  0
 12118  1  0  0  0  0
 12119  1  0  0  0  0
 13 14  1  0  0  0  0
 13 21  2  0  0  0  0
 14 15  1  0  0  0  0
 14 20  2  0  0  0  0
 15 16  2  0  0  0  0
 15120  1  0  0  0  0
 16 17  1  0  0  0  0
 16121  1  0  0  0  0
 17 18  1  0  0  0  0
 17 19  2  0  0  0  0
 18122  1  0  0  0  0
 18123  1  0  0  0  0
 18124  1  0  0  0  0
 19 20  1  0  0  0  0
 19125  1  0  0  0  0
 20126  1  0  0  0  0
 21 22  1  0  0  0  0
 23 24  2  0  0  0  0
 23 25  1  0  0  0  0
 25 26  1  0  0  0  0
 26 27  1  0  0  0  0
 26127  1  0  0  0  0
 26128  1  0  0  0  0
 27 28  1  0  0  0  0
 27129  1  0  0  0  0
 27130  1  0  0  0  0
 28 29  1  0  0  0  0
 29 30  1  0  0  0  0
 29131  1  0  0  0  0
 29132  1  0  0  0  0
 30 31  1  0  0  0  0
 30133  1  0  0  0  0
 30134  1  0  0  0  0
 31 32  1  0  0  0  0
 32 33  1  0  0  0  0
 32135  1  0  0  0  0
 32136  1  0  0  0  0
 33 34  1  0  0  0  0
 33137  1  0  0  0  0
 33138  1  0  0  0  0
 34 35  1  0  0  0  0
 35 36  1  0  0  0  0
 35139  1  0  0  0  0
 35140  1  0  0  0  0
 36 37  1  0  0  0  0
 36141  1  0  0  0  0
 36142  1  0  0  0  0
 37 38  1  0  0  0  0
 38 39  2  0  0  0  0
 38 40  1  0  0  0  0
 40 41  1  0  0  0  0
 40102  2  0  0  0  0
 41 42  2  0  0  0  0
 41143  1  0  0  0  0
 42 43  1  0  0  0  0
 42144  1  0  0  0  0
 43 44  1  0  0  0  0
 43101  2  0  0  0  0
 44 45  1  0  0  0  0
 44 95  2  0  0  0  0
 45 46  2  0  0  0  0
 45100  1  0  0  0  0
 46 47  1  0  0  0  0
 47 48  2  0  0  0  0
 47 99  1  0  0  0  0
 48 49  1  0  0  0  0
 48 60  1  0  0  0  0
 49 50  1  0  0  0  0
 49 58  2  0  0  0  0
 50 51  1  0  0  0  0
 50 52  2  0  0  0  0
 52 53  1  0  0  0  0
 52 54  1  0  0  0  0
 54 55  1  0  0  0  0
 54 56  2  0  0  0  0
 56 57  1  0  0  0  0
 56 58  1  0  0  0  0
 58 59  1  0  0  0  0
 60 61  2  0  0  0  0
 60 64  1  0  0  0  0
 61 62  1  0  0  0  0
 61145  1  0  0  0  0
 62 63  2  0  0  0  0
 62146  1  0  0  0  0
 63 64  1  0  0  0  0
 63 65  1  0  0  0  0
 64147  1  0  0  0  0
 65 66  1  0  0  0  0
 65 77  2  0  0  0  0
 66 67  1  0  0  0  0
 66 75  2  0  0  0  0
 67 68  1  0  0  0  0
 67 69  2  0  0  0  0
 69 70  1  0  0  0  0
 69 71  1  0  0  0  0
 71 72  1  0  0  0  0
 71 73  2  0  0  0  0
 73 74  1  0  0  0  0
 73 75  1  0  0  0  0
 75 76  1  0  0  0  0
 77 78  1  0  0  0  0
 77 98  1  0  0  0  0
 78 79  2  0  0  0  0
 79 80  1  0  0  0  0
 79 97  1  0  0  0  0
 80 81  1  0  0  0  0
 80 92  2  0  0  0  0
 81 82  1  0  0  0  0
 81 90  2  0  0  0  0
 82 83  1  0  0  0  0
 82 84  2  0  0  0  0
 84 85  1  0  0  0  0
 84 86  1  0  0  0  0
 86 87  1  0  0  0  0
 86 88  2  0  0  0  0
 88 89  1  0  0  0  0
 88 90  1  0  0  0  0
 90 91  1  0  0  0  0
 92 93  1  0  0  0  0
 92 96  1  0  0  0  0
 93 94  2  0  0  0  0
 93148  1  0  0  0  0
 94 95  1  0  0  0  0
 94149  1  0  0  0  0
 95 96  1  0  0  0  0
 96150  1  0  0  0  0
 97 98  2  0  0  0  0
 97151  1  0  0  0  0
 98152  1  0  0  0  0
 99100  2  0  0  0  0
 99153  1  0  0  0  0
100154  1  0  0  0  0
101102  1  0  0  0  0
101155  1  0  0  0  0
102156  1  0  0  0  0
103157  1  0  0  0  0
103158  1  0  0  0  0
M  END
$$$$
