0_6_6520
 OpenBabel04152301363D

146155  0  0  1  0  0  0  0  0999 V2000
    5.8928    1.8465   -3.3444 C   0  0  0  0  0  0  0  0  0  0  0  0
    5.7466    1.7339   -1.8553 C   0  0  0  0  0  0  0  0  0  0  0  0
    4.9014    0.7830   -1.2559 C   0  0  0  0  0  0  0  0  0  0  0  0
    4.8948    0.5758    0.1354 C   0  0  0  0  0  0  0  0  0  0  0  0
    4.1867   -0.6015    0.7857 C   0  0  0  0  0  0  0  0  0  0  0  0
    3.0230   -1.0754    0.0624 N   0  0  0  0  0  0  0  0  0  0  0  0
    2.5427   -2.3452   -0.0820 C   0  0  0  0  0  0  0  0  0  0  0  0
    1.4789   -2.5036   -0.6826 O   0  0  0  0  0  0  0  0  0  0  0  0
    3.3010   -3.5338    0.4953 C   0  0  0  0  0  0  0  0  0  0  0  0
    4.4634   -4.0364   -0.4022 C   0  0  2  0  0  0  0  0  0  0  0  0
    3.9979   -5.1978   -1.2856 C   0  0  0  0  0  0  0  0  0  0  0  0
    5.6580   -4.4336    0.4828 C   0  0  0  0  0  0  0  0  0  0  0  0
    7.0513   -4.7112   -0.0615 C   0  0  0  0  0  0  0  0  0  0  0  0
    7.9704   -4.9676    0.7128 O   0  0  0  0  0  0  0  0  0  0  0  0
    7.2068   -4.5876   -1.3994 O   0  0  0  0  0  0  0  0  0  0  0  0
    8.5719   -4.6493   -1.8875 C   0  0  0  0  0  0  0  0  0  0  0  0
    8.9125   -3.5638   -2.9237 C   0  0  0  0  0  0  0  0  0  0  0  0
    8.9008   -2.2074   -2.4833 O   0  0  0  0  0  0  0  0  0  0  0  0
    7.7529   -1.7790   -1.7669 C   0  0  0  0  0  0  0  0  0  0  0  0
    6.4330   -1.7833   -2.5383 C   0  0  0  0  0  0  0  0  0  0  0  0
    6.0730   -2.9912   -3.1917 O   0  0  0  0  0  0  0  0  0  0  0  0
    5.9127   -2.9952   -4.6100 C   0  0  0  0  0  0  0  0  0  0  0  0
    6.1082   -1.6753   -5.3565 C   0  0  0  0  0  0  0  0  0  0  0  0
    5.2042   -0.6104   -5.0579 O   0  0  0  0  0  0  0  0  0  0  0  0
    3.8443   -0.8955   -4.7442 C   0  0  0  0  0  0  0  0  0  0  0  0
    2.9073   -0.6446   -5.9192 C   0  0  0  0  0  0  0  0  0  0  0  0
    2.9232   -1.7914   -6.7706 O   0  0  0  0  0  0  0  0  0  0  0  0
    3.8612   -1.7849   -7.7408 C   0  0  0  0  0  0  0  0  0  0  0  0
    4.5265   -0.8468   -8.1417 O   0  0  0  0  0  0  0  0  0  0  0  0
    4.1174   -3.1935   -8.0864 C   0  0  0  0  0  0  0  0  0  0  0  0
    5.4389   -3.5953   -8.3294 C   0  0  0  0  0  0  0  0  0  0  0  0
    5.7109   -4.9159   -8.6537 C   0  0  0  0  0  0  0  0  0  0  0  0
    4.6427   -5.8055   -8.8054 C   0  0  0  0  0  0  0  0  0  0  0  0
    4.8402   -7.0302   -9.5922 C   0  0  0  0  0  0  0  0  0  0  0  0
    4.6821   -6.9107  -11.0781 C   0  0  0  0  0  0  0  0  0  0  0  0
    4.7062   -7.8402  -11.9930 N   0  0  0  0  0  0  0  0  0  0  0  0
    4.5046   -7.1781  -13.1959 C   0  0  0  0  0  0  0  0  0  0  0  0
    4.4801   -7.7026  -14.4405 C   0  0  0  0  0  0  0  0  0  0  0  0
    4.2611   -6.7559  -15.5826 C   0  0  0  0  0  0  0  0  0  0  0  0
    5.2335   -5.8131  -15.9535 C   0  0  0  0  0  0  0  0  0  0  0  0
    6.3847   -5.7256  -15.2698 F   0  0  0  0  0  0  0  0  0  0  0  0
    5.0048   -4.9187  -16.9960 C   0  0  0  0  0  0  0  0  0  0  0  0
    5.9253   -3.9918  -17.2957 F   0  0  0  0  0  0  0  0  0  0  0  0
    3.8177   -4.9722  -17.7102 C   0  0  0  0  0  0  0  0  0  0  0  0
    3.6002   -4.1141  -18.7163 F   0  0  0  0  0  0  0  0  0  0  0  0
    2.8513   -5.9082  -17.3740 C   0  0  0  0  0  0  0  0  0  0  0  0
    1.7055   -5.9647  -18.0670 F   0  0  0  0  0  0  0  0  0  0  0  0
    3.0641   -6.7836  -16.3122 C   0  0  0  0  0  0  0  0  0  0  0  0
    2.0969   -7.6564  -15.9926 F   0  0  0  0  0  0  0  0  0  0  0  0
    4.6209   -9.1071  -14.7015 C   0  0  0  0  0  0  0  0  0  0  0  0
    4.6114   -9.7658  -15.9146 C   0  0  0  0  0  0  0  0  0  0  0  0
    4.7076  -11.1371  -15.6584 C   0  0  0  0  0  0  0  0  0  0  0  0
    4.8385  -11.3288  -14.2897 C   0  0  0  0  0  0  0  0  0  0  0  0
    4.7785  -10.0727  -13.7147 N   0  0  0  0  0  0  0  0  0  0  0  0
    5.0022  -12.5678  -13.5684 C   0  0  0  0  0  0  0  0  0  0  0  0
    5.0245  -13.8252  -14.3861 C   0  0  0  0  0  0  0  0  0  0  0  0
    3.9453  -14.7195  -14.3819 C   0  0  0  0  0  0  0  0  0  0  0  0
    2.9020  -14.5153  -13.5637 F   0  0  0  0  0  0  0  0  0  0  0  0
    3.9455  -15.8403  -15.2068 C   0  0  0  0  0  0  0  0  0  0  0  0
    2.9193  -16.7009  -15.1636 F   0  0  0  0  0  0  0  0  0  0  0  0
    5.0056  -16.0685  -16.0722 C   0  0  0  0  0  0  0  0  0  0  0  0
    4.9931  -17.1366  -16.8812 F   0  0  0  0  0  0  0  0  0  0  0  0
    6.0788  -15.1909  -16.0987 C   0  0  0  0  0  0  0  0  0  0  0  0
    7.0938  -15.3981  -16.9489 F   0  0  0  0  0  0  0  0  0  0  0  0
    6.0972  -14.0876  -15.2522 C   0  0  0  0  0  0  0  0  0  0  0  0
    7.1469  -13.2534  -15.3013 F   0  0  0  0  0  0  0  0  0  0  0  0
    5.1525  -12.6944  -12.2256 C   0  0  0  0  0  0  0  0  0  0  0  0
    5.1811  -11.7099  -11.2477 N   0  0  0  0  0  0  0  0  0  0  0  0
    5.3398  -12.3356  -10.1044 C   0  0  0  0  0  0  0  0  0  0  0  0
    5.4570  -11.7610   -8.7176 C   0  0  0  0  0  0  0  0  0  0  0  0
    5.6613  -12.6154   -7.5221 C   0  0  0  0  0  0  0  0  0  0  0  0
    6.8899  -13.2498   -7.2989 C   0  0  0  0  0  0  0  0  0  0  0  0
    7.8657  -13.1578   -8.2141 F   0  0  0  0  0  0  0  0  0  0  0  0
    7.1190  -13.9859   -6.1382 C   0  0  0  0  0  0  0  0  0  0  0  0
    8.3000  -14.5915   -5.9543 F   0  0  0  0  0  0  0  0  0  0  0  0
    6.1303  -14.0872   -5.1707 C   0  0  0  0  0  0  0  0  0  0  0  0
    6.3611  -14.7731   -4.0430 F   0  0  0  0  0  0  0  0  0  0  0  0
    4.9036  -13.4730   -5.3724 C   0  0  0  0  0  0  0  0  0  0  0  0
    3.9517  -13.5539   -4.4327 F   0  0  0  0  0  0  0  0  0  0  0  0
    4.6659  -12.7554   -6.5430 C   0  0  0  0  0  0  0  0  0  0  0  0
    3.4740  -12.1628   -6.7073 F   0  0  0  0  0  0  0  0  0  0  0  0
    5.3965  -10.4252   -8.5685 C   0  0  0  0  0  0  0  0  0  0  0  0
    5.4864   -9.6882   -7.3090 C   0  0  0  0  0  0  0  0  0  0  0  0
    5.2928   -8.3809   -7.5533 C   0  0  0  0  0  0  0  0  0  0  0  0
    5.0977   -8.1976   -8.9890 C   0  0  0  0  0  0  0  0  0  0  0  0
    5.2156   -9.4530   -9.5170 N   0  0  0  0  0  0  0  0  0  0  0  0
    5.4103  -13.7965  -10.2243 C   0  0  0  0  0  0  0  0  0  0  0  0
    5.3225  -13.9606  -11.5382 C   0  0  0  0  0  0  0  0  0  0  0  0
    4.3224   -5.7776  -12.8996 C   0  0  0  0  0  0  0  0  0  0  0  0
    4.4537   -5.5516  -11.6040 C   0  0  0  0  0  0  0  0  0  0  0  0
    3.3268   -5.4224   -8.5048 C   0  0  0  0  0  0  0  0  0  0  0  0
    3.0640   -4.1111   -8.1412 C   0  0  0  0  0  0  0  0  0  0  0  0
    5.6980    1.4145    0.9281 C   0  0  0  0  0  0  0  0  0  0  0  0
    6.5192    2.3967    0.3493 C   0  0  0  0  0  0  0  0  0  0  0  0
    7.3541    3.3013    1.2024 C   0  0  0  0  0  0  0  0  0  0  0  0
    6.5533    2.5194   -1.0382 C   0  0  0  0  0  0  0  0  0  0  0  0
    7.3931    3.4001   -1.6038 F   0  0  0  0  0  0  0  0  0  0  0  0
    5.2047    1.1805   -3.8217 H   0  0  0  0  0  0  0  0  0  0  0  0
    6.8924    1.5880   -3.6252 H   0  0  0  0  0  0  0  0  0  0  0  0
    5.6855    2.8513   -3.6482 H   0  0  0  0  0  0  0  0  0  0  0  0
    4.2707    0.2237   -1.8512 H   0  0  0  0  0  0  0  0  0  0  0  0
    3.8738   -0.3043    1.7648 H   0  0  0  0  0  0  0  0  0  0  0  0
    4.8878   -1.4097    0.7987 H   0  0  0  0  0  0  0  0  0  0  0  0
    2.5005   -0.3763   -0.3932 H   0  0  0  0  0  0  0  0  0  0  0  0
    2.6100   -4.3390    0.6334 H   0  0  0  0  0  0  0  0  0  0  0  0
    3.7391   -3.2051    1.4145 H   0  0  0  0  0  0  0  0  0  0  0  0
    4.7773   -3.2502   -1.0567 H   0  0  0  0  0  0  0  0  0  0  0  0
    3.6741   -6.0087   -0.6672 H   0  0  0  0  0  0  0  0  0  0  0  0
    4.8084   -5.5225   -1.9042 H   0  0  0  0  0  0  0  0  0  0  0  0
    3.1861   -4.8735   -1.9026 H   0  0  0  0  0  0  0  0  0  0  0  0
    5.3602   -5.3260    0.9925 H   0  0  0  0  0  0  0  0  0  0  0  0
    5.8238   -3.5279    1.0279 H   0  0  0  0  0  0  0  0  0  0  0  0
    8.7252   -5.6069   -2.3397 H   0  0  0  0  0  0  0  0  0  0  0  0
    9.2110   -4.4863   -1.0450 H   0  0  0  0  0  0  0  0  0  0  0  0
    8.2041   -3.6481   -3.7211 H   0  0  0  0  0  0  0  0  0  0  0  0
    9.9301   -3.7542   -3.1941 H   0  0  0  0  0  0  0  0  0  0  0  0
    7.9319   -0.7785   -1.4324 H   0  0  0  0  0  0  0  0  0  0  0  0
    7.6255   -2.4918   -0.9791 H   0  0  0  0  0  0  0  0  0  0  0  0
    6.4922   -1.0181   -3.2839 H   0  0  0  0  0  0  0  0  0  0  0  0
    5.6768   -1.6322   -1.7965 H   0  0  0  0  0  0  0  0  0  0  0  0
    4.9192   -3.3342   -4.8173 H   0  0  0  0  0  0  0  0  0  0  0  0
    6.7011   -3.6243   -4.9670 H   0  0  0  0  0  0  0  0  0  0  0  0
    6.0248   -1.8831   -6.4028 H   0  0  0  0  0  0  0  0  0  0  0  0
    7.0651   -1.3194   -5.0364 H   0  0  0  0  0  0  0  0  0  0  0  0
    3.5434   -0.2737   -3.9270 H   0  0  0  0  0  0  0  0  0  0  0  0
    3.7800   -1.9339   -4.4943 H   0  0  0  0  0  0  0  0  0  0  0  0
    3.2371    0.2142   -6.4657 H   0  0  0  0  0  0  0  0  0  0  0  0
    1.9139   -0.4692   -5.5623 H   0  0  0  0  0  0  0  0  0  0  0  0
    6.2075   -2.9095   -8.2670 H   0  0  0  0  0  0  0  0  0  0  0  0
    6.6837   -5.2362   -8.7807 H   0  0  0  0  0  0  0  0  0  0  0  0
    4.5451   -9.3246  -16.8452 H   0  0  0  0  0  0  0  0  0  0  0  0
    4.6850  -11.8841  -16.3701 H   0  0  0  0  0  0  0  0  0  0  0  0
    4.8385   -9.8896  -12.7492 H   0  0  0  0  0  0  0  0  0  0  0  0
    5.6689  -10.1044   -6.3825 H   0  0  0  0  0  0  0  0  0  0  0  0
    5.2835   -7.6312   -6.8442 H   0  0  0  0  0  0  0  0  0  0  0  0
    5.1746   -9.6400  -10.4827 H   0  0  0  0  0  0  0  0  0  0  0  0
    5.5035  -14.5082   -9.4828 H   0  0  0  0  0  0  0  0  0  0  0  0
    5.3694  -14.8760  -12.0125 H   0  0  0  0  0  0  0  0  0  0  0  0
    4.1175   -5.0513  -13.6035 H   0  0  0  0  0  0  0  0  0  0  0  0
    4.4082   -4.6563  -11.0928 H   0  0  0  0  0  0  0  0  0  0  0  0
    2.5605   -6.1118   -8.5541 H   0  0  0  0  0  0  0  0  0  0  0  0
    2.1018   -3.8154   -7.9135 H   0  0  0  0  0  0  0  0  0  0  0  0
    5.6841    1.3066    1.9544 H   0  0  0  0  0  0  0  0  0  0  0  0
    7.1994    3.0620    2.2338 H   0  0  0  0  0  0  0  0  0  0  0  0
    7.0722    4.3183    1.0261 H   0  0  0  0  0  0  0  0  0  0  0  0
    8.3872    3.1699    0.9568 H   0  0  0  0  0  0  0  0  0  0  0  0
  1  2  1  0  0  0  0
  1 98  1  0  0  0  0
  1 99  1  0  0  0  0
  1100  1  0  0  0  0
  2  3  1  0  0  0  0
  2 96  2  0  0  0  0
  3  4  2  0  0  0  0
  3101  1  0  0  0  0
  4  5  1  0  0  0  0
  4 93  1  0  0  0  0
  5  6  1  0  0  0  0
  5102  1  0  0  0  0
  5103  1  0  0  0  0
  6  7  1  0  0  0  0
  6104  1  0  0  0  0
  7  8  2  0  0  0  0
  7  9  1  0  0  0  0
  9105  1  0  0  0  0
  9106  1  0  0  0  0
 10 12  1  0  0  0  0
 10 11  1  0  0  0  0
 10  9  1  0  0  0  0
 10107  1  6  0  0  0
 11108  1  0  0  0  0
 11109  1  0  0  0  0
 11110  1  0  0  0  0
 12 13  1  0  0  0  0
 12111  1  0  0  0  0
 12112  1  0  0  0  0
 13 14  2  0  0  0  0
 13 15  1  0  0  0  0
 15 16  1  0  0  0  0
 16 17  1  0  0  0  0
 16113  1  0  0  0  0
 16114  1  0  0  0  0
 17 18  1  0  0  0  0
 17115  1  0  0  0  0
 17116  1  0  0  0  0
 18 19  1  0  0  0  0
 19 20  1  0  0  0  0
 19117  1  0  0  0  0
 19118  1  0  0  0  0
 20 21  1  0  0  0  0
 20119  1  0  0  0  0
 20120  1  0  0  0  0
 21 22  1  0  0  0  0
 22 23  1  0  0  0  0
 22121  1  0  0  0  0
 22122  1  0  0  0  0
 23 24  1  0  0  0  0
 23123  1  0  0  0  0
 23124  1  0  0  0  0
 24 25  1  0  0  0  0
 25 26  1  0  0  0  0
 25125  1  0  0  0  0
 25126  1  0  0  0  0
 26 27  1  0  0  0  0
 26127  1  0  0  0  0
 26128  1  0  0  0  0
 27 28  1  0  0  0  0
 28 29  2  0  0  0  0
 28 30  1  0  0  0  0
 30 31  1  0  0  0  0
 30 92  2  0  0  0  0
 31 32  2  0  0  0  0
 31129  1  0  0  0  0
 32 33  1  0  0  0  0
 32130  1  0  0  0  0
 33 34  1  0  0  0  0
 33 91  2  0  0  0  0
 34 35  1  0  0  0  0
 34 85  2  0  0  0  0
 35 36  2  0  0  0  0
 35 90  1  0  0  0  0
 36 37  1  0  0  0  0
 37 38  2  0  0  0  0
 37 89  1  0  0  0  0
 38 39  1  0  0  0  0
 38 50  1  0  0  0  0
 39 40  1  0  0  0  0
 39 48  2  0  0  0  0
 40 41  1  0  0  0  0
 40 42  2  0  0  0  0
 42 43  1  0  0  0  0
 42 44  1  0  0  0  0
 44 45  1  0  0  0  0
 44 46  2  0  0  0  0
 46 47  1  0  0  0  0
 46 48  1  0  0  0  0
 48 49  1  0  0  0  0
 50 51  2  0  0  0  0
 50 54  1  0  0  0  0
 51 52  1  0  0  0  0
 51131  1  0  0  0  0
 52 53  2  0  0  0  0
 52132  1  0  0  0  0
 53 54  1  0  0  0  0
 53 55  1  0  0  0  0
 54133  1  0  0  0  0
 55 56  1  0  0  0  0
 55 67  2  0  0  0  0
 56 57  1  0  0  0  0
 56 65  2  0  0  0  0
 57 58  1  0  0  0  0
 57 59  2  0  0  0  0
 59 60  1  0  0  0  0
 59 61  1  0  0  0  0
 61 62  1  0  0  0  0
 61 63  2  0  0  0  0
 63 64  1  0  0  0  0
 63 65  1  0  0  0  0
 65 66  1  0  0  0  0
 67 68  1  0  0  0  0
 67 88  1  0  0  0  0
 68 69  2  0  0  0  0
 69 70  1  0  0  0  0
 69 87  1  0  0  0  0
 70 71  1  0  0  0  0
 70 82  2  0  0  0  0
 71 72  1  0  0  0  0
 71 80  2  0  0  0  0
 72 73  1  0  0  0  0
 72 74  2  0  0  0  0
 74 75  1  0  0  0  0
 74 76  1  0  0  0  0
 76 77  1  0  0  0  0
 76 78  2  0  0  0  0
 78 79  1  0  0  0  0
 78 80  1  0  0  0  0
 80 81  1  0  0  0  0
 82 83  1  0  0  0  0
 82 86  1  0  0  0  0
 83 84  2  0  0  0  0
 83134  1  0  0  0  0
 84 85  1  0  0  0  0
 84135  1  0  0  0  0
 85 86  1  0  0  0  0
 86136  1  0  0  0  0
 87 88  2  0  0  0  0
 87137  1  0  0  0  0
 88138  1  0  0  0  0
 89 90  2  0  0  0  0
 89139  1  0  0  0  0
 90140  1  0  0  0  0
 91 92  1  0  0  0  0
 91141  1  0  0  0  0
 92142  1  0  0  0  0
 93 94  2  0  0  0  0
 93143  1  0  0  0  0
 94 95  1  0  0  0  0
 94 96  1  0  0  0  0
 95144  1  0  0  0  0
 95145  1  0  0  0  0
 95146  1  0  0  0  0
 96 97  1  0  0  0  0
M  END
$$$$
