0_6_4096
 OpenBabel04152301373D

144154  0  0  1  0  0  0  0  0999 V2000
    1.1285    0.6585   -0.0051 C   0  0  0  0  0  0  0  0  0  0  0  0
    0.6576   -0.7618    0.3455 C   0  0  1  0  0  0  0  0  0  0  0  0
    1.2036   -1.3208    1.6323 N   0  3  1  0  0  0  0  0  0  0  0  0
    0.9543   -2.7777    1.6197 C   0  0  0  0  0  0  0  0  0  0  0  0
    2.6426   -1.0273    1.8702 C   0  0  2  0  0  0  0  0  0  0  0  0
    3.5506   -2.1261    2.4489 C   0  0  0  0  0  0  0  0  0  0  0  0
    4.8257   -1.5174    2.6224 O   0  0  0  0  0  0  0  0  0  0  0  0
    4.6050   -0.1344    2.9172 C   0  0  0  0  0  0  0  0  0  0  0  0
    3.1345    0.2464    2.6064 C   0  0  2  0  0  0  0  0  0  0  0  0
    2.6582    0.9601    3.8773 C   0  0  0  0  0  0  0  0  0  0  0  0
    3.4428    1.6983    4.4805 O   0  0  0  0  0  0  0  0  0  0  0  0
    1.3611    0.8641    4.2465 O   0  0  0  0  0  0  0  0  0  0  0  0
    0.9766    1.6797    5.3945 C   0  0  0  0  0  0  0  0  0  0  0  0
    0.3035    0.9697    6.5909 C   0  0  0  0  0  0  0  0  0  0  0  0
    0.9358   -0.1055    7.2776 O   0  0  0  0  0  0  0  0  0  0  0  0
    1.7584   -0.9691    6.5229 C   0  0  0  0  0  0  0  0  0  0  0  0
    1.0742   -1.8250    5.4590 C   0  0  0  0  0  0  0  0  0  0  0  0
   -0.0216   -1.2524    4.7717 O   0  0  0  0  0  0  0  0  0  0  0  0
   -1.3550   -1.5805    5.1251 C   0  0  0  0  0  0  0  0  0  0  0  0
   -1.6182   -2.6840    6.1421 C   0  0  0  0  0  0  0  0  0  0  0  0
   -1.1090   -3.9928    5.8790 O   0  0  0  0  0  0  0  0  0  0  0  0
   -0.8002   -4.3702    4.5398 C   0  0  0  0  0  0  0  0  0  0  0  0
   -1.9469   -5.0258    3.7823 C   0  0  0  0  0  0  0  0  0  0  0  0
   -2.8383   -4.0276    3.2598 O   0  0  0  0  0  0  0  0  0  0  0  0
   -3.9530   -3.8227    3.9883 C   0  0  0  0  0  0  0  0  0  0  0  0
   -4.3236   -4.4433    4.9755 O   0  0  0  0  0  0  0  0  0  0  0  0
   -4.6343   -2.6080    3.5160 C   0  0  0  0  0  0  0  0  0  0  0  0
   -5.0655   -1.6936    4.4838 C   0  0  0  0  0  0  0  0  0  0  0  0
   -5.8527   -0.6108    4.1123 C   0  0  0  0  0  0  0  0  0  0  0  0
   -6.2265   -0.4517    2.7722 C   0  0  0  0  0  0  0  0  0  0  0  0
   -7.3213    0.4886    2.4425 C   0  0  0  0  0  0  0  0  0  0  0  0
   -8.7039   -0.0671    2.2393 C   0  0  0  0  0  0  0  0  0  0  0  0
   -9.8114    0.5501    1.9174 N   0  0  0  0  0  0  0  0  0  0  0  0
  -10.7865   -0.4372    1.8521 C   0  0  0  0  0  0  0  0  0  0  0  0
  -12.1079   -0.3003    1.5911 C   0  0  0  0  0  0  0  0  0  0  0  0
  -12.9428   -1.5484    1.5528 C   0  0  0  0  0  0  0  0  0  0  0  0
  -13.2242   -2.2910    2.7098 C   0  0  0  0  0  0  0  0  0  0  0  0
  -12.7118   -1.9190    3.8926 F   0  0  0  0  0  0  0  0  0  0  0  0
  -13.9985   -3.4475    2.6491 C   0  0  0  0  0  0  0  0  0  0  0  0
  -14.2086   -4.1702    3.7580 F   0  0  0  0  0  0  0  0  0  0  0  0
  -14.5391   -3.8614    1.4410 C   0  0  0  0  0  0  0  0  0  0  0  0
  -15.2906   -4.9696    1.3855 F   0  0  0  0  0  0  0  0  0  0  0  0
  -14.2937   -3.1306    0.2890 C   0  0  0  0  0  0  0  0  0  0  0  0
  -14.8264   -3.5203   -0.8774 F   0  0  0  0  0  0  0  0  0  0  0  0
  -13.4917   -1.9939    0.3403 C   0  0  0  0  0  0  0  0  0  0  0  0
  -13.2564   -1.3214   -0.7965 F   0  0  0  0  0  0  0  0  0  0  0  0
  -12.7455    0.9600    1.3160 C   0  0  0  0  0  0  0  0  0  0  0  0
  -14.0791    1.2128    1.0501 C   0  0  0  0  0  0  0  0  0  0  0  0
  -14.2167    2.5760    0.7713 C   0  0  0  0  0  0  0  0  0  0  0  0
  -12.9831    3.1861    0.9361 C   0  0  0  0  0  0  0  0  0  0  0  0
  -12.0877    2.1809    1.2633 N   0  0  0  0  0  0  0  0  0  0  0  0
  -12.6466    4.5815    0.8033 C   0  0  0  0  0  0  0  0  0  0  0  0
  -13.7576    5.5342    0.4600 C   0  0  0  0  0  0  0  0  0  0  0  0
  -13.8238    6.1790   -0.7839 C   0  0  0  0  0  0  0  0  0  0  0  0
  -12.8510    6.0000   -1.6903 F   0  0  0  0  0  0  0  0  0  0  0  0
  -14.8715    7.0455   -1.0863 C   0  0  0  0  0  0  0  0  0  0  0  0
  -14.8849    7.6927   -2.2598 F   0  0  0  0  0  0  0  0  0  0  0  0
  -15.8930    7.2507   -0.1710 C   0  0  0  0  0  0  0  0  0  0  0  0
  -16.9057    8.0764   -0.4686 F   0  0  0  0  0  0  0  0  0  0  0  0
  -15.8611    6.6053    1.0552 C   0  0  0  0  0  0  0  0  0  0  0  0
  -16.8568    6.7863    1.9338 F   0  0  0  0  0  0  0  0  0  0  0  0
  -14.7964    5.7681    1.3753 C   0  0  0  0  0  0  0  0  0  0  0  0
  -14.7884    5.1691    2.5758 F   0  0  0  0  0  0  0  0  0  0  0  0
  -11.4100    5.1055    0.9944 C   0  0  0  0  0  0  0  0  0  0  0  0
  -10.2314    4.4641    1.3553 N   0  0  0  0  0  0  0  0  0  0  0  0
   -9.3101    5.3967    1.4011 C   0  0  0  0  0  0  0  0  0  0  0  0
   -7.8529    5.2826    1.7729 C   0  0  0  0  0  0  0  0  0  0  0  0
   -6.9696    6.4788    1.7726 C   0  0  0  0  0  0  0  0  0  0  0  0
   -7.1618    7.5241    2.6864 C   0  0  0  0  0  0  0  0  0  0  0  0
   -8.1583    7.4560    3.5815 F   0  0  0  0  0  0  0  0  0  0  0  0
   -6.3633    8.6659    2.6534 C   0  0  0  0  0  0  0  0  0  0  0  0
   -6.6048    9.6738    3.5027 F   0  0  0  0  0  0  0  0  0  0  0  0
   -5.3339    8.7696    1.7300 C   0  0  0  0  0  0  0  0  0  0  0  0
   -4.5652    9.8666    1.7002 F   0  0  0  0  0  0  0  0  0  0  0  0
   -5.1093    7.7389    0.8309 C   0  0  0  0  0  0  0  0  0  0  0  0
   -4.1069    7.8274   -0.0539 F   0  0  0  0  0  0  0  0  0  0  0  0
   -5.9285    6.6123    0.8411 C   0  0  0  0  0  0  0  0  0  0  0  0
   -5.7012    5.6424   -0.0570 F   0  0  0  0  0  0  0  0  0  0  0  0
   -7.3507    4.0737    2.0898 C   0  0  0  0  0  0  0  0  0  0  0  0
   -5.9684    3.7913    2.4730 C   0  0  0  0  0  0  0  0  0  0  0  0
   -5.8157    2.4645    2.6237 C   0  0  0  0  0  0  0  0  0  0  0  0
   -7.1009    1.8123    2.3854 C   0  0  0  0  0  0  0  0  0  0  0  0
   -7.9599    2.8443    2.1069 N   0  0  0  0  0  0  0  0  0  0  0  0
   -9.7975    6.7350    1.0393 C   0  0  0  0  0  0  0  0  0  0  0  0
  -11.0894    6.5098    0.8471 C   0  0  0  0  0  0  0  0  0  0  0  0
  -10.1367   -1.6979    2.1326 C   0  0  0  0  0  0  0  0  0  0  0  0
   -8.8579   -1.5198    2.4245 C   0  0  0  0  0  0  0  0  0  0  0  0
   -5.7150   -1.3194    1.7907 C   0  0  0  0  0  0  0  0  0  0  0  0
   -4.9206   -2.4058    2.1631 C   0  0  0  0  0  0  0  0  0  0  0  0
   -0.8950   -0.7897    0.3348 C   0  0  0  0  0  0  0  0  0  0  0  0
   -1.5683   -0.4960    1.6515 C   0  0  0  0  0  0  0  0  0  0  0  0
   -1.6451   -0.3463   -0.9167 C   0  0  0  0  0  0  0  0  0  0  0  0
   -1.5946   -1.7985   -0.5697 C   0  0  0  0  0  0  0  0  0  0  0  0
    2.1980    0.6908   -0.0010 H   0  0  0  0  0  0  0  0  0  0  0  0
    0.7480    1.3491    0.7182 H   0  0  0  0  0  0  0  0  0  0  0  0
    0.7673    0.9244   -0.9766 H   0  0  0  0  0  0  0  0  0  0  0  0
    1.0584   -1.4100   -0.4055 H   0  0  0  0  0  0  0  0  0  0  0  0
    0.7238   -0.8617    2.4065 H   0  0  0  0  0  0  0  0  0  0  0  0
    1.4730   -3.2212    0.7956 H   0  0  0  0  0  0  0  0  0  0  0  0
   -0.0955   -2.9591    1.5196 H   0  0  0  0  0  0  0  0  0  0  0  0
    1.3049   -3.2075    2.5347 H   0  0  0  0  0  0  0  0  0  0  0  0
    2.7342   -0.8890    0.8131 H   0  0  0  0  0  0  0  0  0  0  0  0
    3.6194   -2.9499    1.7696 H   0  0  0  0  0  0  0  0  0  0  0  0
    3.1673   -2.5116    3.3705 H   0  0  0  0  0  0  0  0  0  0  0  0
    5.2599    0.4642    2.3192 H   0  0  0  0  0  0  0  0  0  0  0  0
    4.8007    0.0390    3.9548 H   0  0  0  0  0  0  0  0  0  0  0  0
    2.7440    0.9786    1.9310 H   0  0  0  0  0  0  0  0  0  0  0  0
    0.2954    2.4257    5.0419 H   0  0  0  0  0  0  0  0  0  0  0  0
    1.9023    2.0470    5.7857 H   0  0  0  0  0  0  0  0  0  0  0  0
   -0.6282    0.5883    6.2285 H   0  0  0  0  0  0  0  0  0  0  0  0
    0.2931    1.7389    7.3346 H   0  0  0  0  0  0  0  0  0  0  0  0
    2.2438   -1.6326    7.2078 H   0  0  0  0  0  0  0  0  0  0  0  0
    2.4148   -0.3224    5.9791 H   0  0  0  0  0  0  0  0  0  0  0  0
    0.7232   -2.7146    5.9390 H   0  0  0  0  0  0  0  0  0  0  0  0
    1.8204   -1.9775    4.7075 H   0  0  0  0  0  0  0  0  0  0  0  0
   -1.8538   -1.8655    4.2224 H   0  0  0  0  0  0  0  0  0  0  0  0
   -1.7053   -0.6985    5.6193 H   0  0  0  0  0  0  0  0  0  0  0  0
   -2.6797   -2.7731    6.2431 H   0  0  0  0  0  0  0  0  0  0  0  0
   -1.0851   -2.3673    7.0141 H   0  0  0  0  0  0  0  0  0  0  0  0
    0.0176   -5.0596    4.5681 H   0  0  0  0  0  0  0  0  0  0  0  0
   -0.5708   -3.4656    4.0165 H   0  0  0  0  0  0  0  0  0  0  0  0
   -2.4869   -5.6675    4.4467 H   0  0  0  0  0  0  0  0  0  0  0  0
   -1.5456   -5.5927    2.9683 H   0  0  0  0  0  0  0  0  0  0  0  0
   -4.7990   -1.8235    5.4723 H   0  0  0  0  0  0  0  0  0  0  0  0
   -6.1606    0.0733    4.8209 H   0  0  0  0  0  0  0  0  0  0  0  0
  -14.8405    0.5161    1.0564 H   0  0  0  0  0  0  0  0  0  0  0  0
  -15.0900    3.0485    0.4901 H   0  0  0  0  0  0  0  0  0  0  0  0
  -11.1270    2.3131    1.4333 H   0  0  0  0  0  0  0  0  0  0  0  0
   -5.2281    4.4979    2.6065 H   0  0  0  0  0  0  0  0  0  0  0  0
   -4.9350    1.9851    2.8677 H   0  0  0  0  0  0  0  0  0  0  0  0
   -8.9208    2.7156    1.9358 H   0  0  0  0  0  0  0  0  0  0  0  0
   -9.2714    7.6190    0.9565 H   0  0  0  0  0  0  0  0  0  0  0  0
  -11.7797    7.2428    0.6210 H   0  0  0  0  0  0  0  0  0  0  0  0
  -10.6078   -2.6158    2.1084 H   0  0  0  0  0  0  0  0  0  0  0  0
   -8.1524   -2.2175    2.7081 H   0  0  0  0  0  0  0  0  0  0  0  0
   -5.9269   -1.1531    0.7945 H   0  0  0  0  0  0  0  0  0  0  0  0
   -4.5496   -3.0512    1.4483 H   0  0  0  0  0  0  0  0  0  0  0  0
   -0.9896    0.2207    2.1960 H   0  0  0  0  0  0  0  0  0  0  0  0
   -1.6464   -1.3983    2.2213 H   0  0  0  0  0  0  0  0  0  0  0  0
   -2.5467   -0.1019    1.4717 H   0  0  0  0  0  0  0  0  0  0  0  0
   -1.1015    0.0189   -1.7628 H   0  0  0  0  0  0  0  0  0  0  0  0
   -2.4299    0.3533   -1.1157 H   0  0  0  0  0  0  0  0  0  0  0  0
   -2.4785   -2.2965   -0.2295 H   0  0  0  0  0  0  0  0  0  0  0  0
   -1.2901   -2.6854   -1.0850 H   0  0  0  0  0  0  0  0  0  0  0  0
  1  2  1  0  0  0  0
  1 94  1  0  0  0  0
  1 95  1  0  0  0  0
  1 96  1  0  0  0  0
  2  3  1  0  0  0  0
  2 90  1  0  0  0  0
  2 97  1  6  0  0  0
  3  4  1  0  0  0  0
  3  5  1  0  0  0  0
  3 98  1  1  0  0  0
  4 99  1  0  0  0  0
  4100  1  0  0  0  0
  4101  1  0  0  0  0
  5  6  1  0  0  0  0
  5  9  1  0  0  0  0
  5102  1  6  0  0  0
  6  7  1  0  0  0  0
  6103  1  0  0  0  0
  6104  1  0  0  0  0
  7  8  1  0  0  0  0
  8  9  1  0  0  0  0
  8105  1  0  0  0  0
  8106  1  0  0  0  0
  9 10  1  0  0  0  0
  9107  1  6  0  0  0
 10 11  2  0  0  0  0
 10 12  1  0  0  0  0
 12 13  1  0  0  0  0
 13 14  1  0  0  0  0
 13108  1  0  0  0  0
 13109  1  0  0  0  0
 14 15  1  0  0  0  0
 14110  1  0  0  0  0
 14111  1  0  0  0  0
 15 16  1  0  0  0  0
 16 17  1  0  0  0  0
 16112  1  0  0  0  0
 16113  1  0  0  0  0
 17 18  1  0  0  0  0
 17114  1  0  0  0  0
 17115  1  0  0  0  0
 18 19  1  0  0  0  0
 19 20  1  0  0  0  0
 19116  1  0  0  0  0
 19117  1  0  0  0  0
 20 21  1  0  0  0  0
 20118  1  0  0  0  0
 20119  1  0  0  0  0
 21 22  1  0  0  0  0
 22 23  1  0  0  0  0
 22120  1  0  0  0  0
 22121  1  0  0  0  0
 23 24  1  0  0  0  0
 23122  1  0  0  0  0
 23123  1  0  0  0  0
 24 25  1  0  0  0  0
 25 26  2  0  0  0  0
 25 27  1  0  0  0  0
 27 28  1  0  0  0  0
 27 89  2  0  0  0  0
 28 29  2  0  0  0  0
 28124  1  0  0  0  0
 29 30  1  0  0  0  0
 29125  1  0  0  0  0
 30 31  1  0  0  0  0
 30 88  2  0  0  0  0
 31 32  1  0  0  0  0
 31 82  2  0  0  0  0
 32 33  2  0  0  0  0
 32 87  1  0  0  0  0
 33 34  1  0  0  0  0
 34 35  2  0  0  0  0
 34 86  1  0  0  0  0
 35 36  1  0  0  0  0
 35 47  1  0  0  0  0
 36 37  1  0  0  0  0
 36 45  2  0  0  0  0
 37 38  1  0  0  0  0
 37 39  2  0  0  0  0
 39 40  1  0  0  0  0
 39 41  1  0  0  0  0
 41 42  1  0  0  0  0
 41 43  2  0  0  0  0
 43 44  1  0  0  0  0
 43 45  1  0  0  0  0
 45 46  1  0  0  0  0
 47 48  2  0  0  0  0
 47 51  1  0  0  0  0
 48 49  1  0  0  0  0
 48126  1  0  0  0  0
 49 50  2  0  0  0  0
 49127  1  0  0  0  0
 50 51  1  0  0  0  0
 50 52  1  0  0  0  0
 51128  1  0  0  0  0
 52 53  1  0  0  0  0
 52 64  2  0  0  0  0
 53 54  1  0  0  0  0
 53 62  2  0  0  0  0
 54 55  1  0  0  0  0
 54 56  2  0  0  0  0
 56 57  1  0  0  0  0
 56 58  1  0  0  0  0
 58 59  1  0  0  0  0
 58 60  2  0  0  0  0
 60 61  1  0  0  0  0
 60 62  1  0  0  0  0
 62 63  1  0  0  0  0
 64 65  1  0  0  0  0
 64 85  1  0  0  0  0
 65 66  2  0  0  0  0
 66 67  1  0  0  0  0
 66 84  1  0  0  0  0
 67 68  1  0  0  0  0
 67 79  2  0  0  0  0
 68 69  1  0  0  0  0
 68 77  2  0  0  0  0
 69 70  1  0  0  0  0
 69 71  2  0  0  0  0
 71 72  1  0  0  0  0
 71 73  1  0  0  0  0
 73 74  1  0  0  0  0
 73 75  2  0  0  0  0
 75 76  1  0  0  0  0
 75 77  1  0  0  0  0
 77 78  1  0  0  0  0
 79 80  1  0  0  0  0
 79 83  1  0  0  0  0
 80 81  2  0  0  0  0
 80129  1  0  0  0  0
 81 82  1  0  0  0  0
 81130  1  0  0  0  0
 82 83  1  0  0  0  0
 83131  1  0  0  0  0
 84 85  2  0  0  0  0
 84132  1  0  0  0  0
 85133  1  0  0  0  0
 86 87  2  0  0  0  0
 86134  1  0  0  0  0
 87135  1  0  0  0  0
 88 89  1  0  0  0  0
 88136  1  0  0  0  0
 89137  1  0  0  0  0
 90 91  1  0  0  0  0
 90 92  1  0  0  0  0
 90 93  1  0  0  0  0
 91138  1  0  0  0  0
 91139  1  0  0  0  0
 91140  1  0  0  0  0
 92 93  1  0  0  0  0
 92141  1  0  0  0  0
 92142  1  0  0  0  0
 93143  1  0  0  0  0
 93144  1  0  0  0  0
M  CHG  1   3   1
M  END
$$$$
