1_0_6397
 OpenBabel04152301373D

144155  0  0  0  0  0  0  0  0999 V2000
    0.9826   -0.0122    0.0506 C   0  0  0  0  0  0  0  0  0  0  0  0
    0.4818    0.0271   -1.2838 O   0  0  0  0  0  0  0  0  0  0  0  0
    0.9709    1.0754   -2.0133 C   0  0  0  0  0  0  0  0  0  0  0  0
    0.0384    1.8205   -2.7315 C   0  0  0  0  0  0  0  0  0  0  0  0
    0.4531    2.9122   -3.4962 C   0  0  0  0  0  0  0  0  0  0  0  0
    1.8129    3.2365   -3.5885 C   0  0  0  0  0  0  0  0  0  0  0  0
    2.2410    4.3912   -4.3156 N   0  0  0  0  0  0  0  0  0  0  0  0
    1.6585    5.6171   -3.9919 C   0  0  0  0  0  0  0  0  0  0  0  0
    0.7749    5.7246   -3.1402 O   0  0  0  0  0  0  0  0  0  0  0  0
    2.1039    6.7518   -4.5967 N   0  3  0  0  0  0  0  0  0  0  0  0
    3.0654    6.7779   -5.4657 C   0  0  0  0  0  0  0  0  0  0  0  0
    3.3886    8.0145   -5.9773 N   0  0  0  0  0  0  0  0  0  0  0  0
    2.8422    9.2710   -5.4856 C   0  0  0  0  0  0  0  0  0  0  0  0
    3.9653   10.2005   -5.0272 C   0  0  0  0  0  0  0  0  0  0  0  0
    4.9816   10.5544   -6.1125 C   0  0  0  0  0  0  0  0  0  0  0  0
    4.3994   11.2131   -7.3661 C   0  0  0  0  0  0  0  0  0  0  0  0
    3.9521   12.6650   -7.1889 C   0  0  0  0  0  0  0  0  0  0  0  0
    5.0418   13.6490   -6.7715 C   0  0  0  0  0  0  0  0  0  0  0  0
    6.1747   13.6965   -7.6849 N   0  0  0  0  0  0  0  0  0  0  0  0
    7.0804   14.7080   -7.9050 C   0  0  0  0  0  0  0  0  0  0  0  0
    8.0209   14.5344   -8.6725 O   0  0  0  0  0  0  0  0  0  0  0  0
    6.8498   16.0338   -7.3011 C   0  0  0  0  0  0  0  0  0  0  0  0
    6.8348   17.1308   -8.1660 C   0  0  0  0  0  0  0  0  0  0  0  0
    6.3836   18.3627   -7.7033 C   0  0  0  0  0  0  0  0  0  0  0  0
    5.9008   18.4870   -6.3909 C   0  0  0  0  0  0  0  0  0  0  0  0
    5.2146   19.7327   -5.9729 C   0  0  0  0  0  0  0  0  0  0  0  0
    5.8036   20.6094   -4.9105 C   0  0  0  0  0  0  0  0  0  0  0  0
    5.3605   21.7483   -4.4443 N   0  0  0  0  0  0  0  0  0  0  0  0
    6.2631   22.1285   -3.4606 C   0  0  0  0  0  0  0  0  0  0  0  0
    6.2838   23.2697   -2.7321 C   0  0  0  0  0  0  0  0  0  0  0  0
    7.4002   23.4355   -1.7406 C   0  0  0  0  0  0  0  0  0  0  0  0
    8.7319   23.6071   -2.1448 C   0  0  0  0  0  0  0  0  0  0  0  0
    9.0539   23.5990   -3.4474 F   0  0  0  0  0  0  0  0  0  0  0  0
    9.7667   23.7444   -1.2175 C   0  0  0  0  0  0  0  0  0  0  0  0
    9.4819   23.7521    0.1461 C   0  0  0  0  0  0  0  0  0  0  0  0
    8.1631   23.6089    0.5719 C   0  0  0  0  0  0  0  0  0  0  0  0
    7.1410   23.4409   -0.3643 C   0  0  0  0  0  0  0  0  0  0  0  0
    5.8898   23.2865    0.0945 F   0  0  0  0  0  0  0  0  0  0  0  0
    5.3003   24.3152   -2.8499 C   0  0  0  0  0  0  0  0  0  0  0  0
    5.2521   25.5324   -2.1942 C   0  0  0  0  0  0  0  0  0  0  0  0
    4.0762   26.1874   -2.5757 C   0  0  0  0  0  0  0  0  0  0  0  0
    3.4230   25.4079   -3.5175 C   0  0  0  0  0  0  0  0  0  0  0  0
    4.1832   24.2599   -3.6725 N   0  0  0  0  0  0  0  0  0  0  0  0
    2.1982   25.6930   -4.2236 C   0  0  0  0  0  0  0  0  0  0  0  0
    1.5109   26.9983   -3.9410 C   0  0  0  0  0  0  0  0  0  0  0  0
    0.2824   27.0594   -3.2702 C   0  0  0  0  0  0  0  0  0  0  0  0
   -0.3399   25.9344   -2.8862 F   0  0  0  0  0  0  0  0  0  0  0  0
   -0.3530   28.2770   -3.0217 C   0  0  0  0  0  0  0  0  0  0  0  0
    0.2543   29.4704   -3.4077 C   0  0  0  0  0  0  0  0  0  0  0  0
    1.4887   29.4358   -4.0527 C   0  0  0  0  0  0  0  0  0  0  0  0
    2.0981   28.2108   -4.3254 C   0  0  0  0  0  0  0  0  0  0  0  0
    3.2789   28.2253   -4.9620 F   0  0  0  0  0  0  0  0  0  0  0  0
    1.6244   24.8843   -5.1488 C   0  0  0  0  0  0  0  0  0  0  0  0
    2.0457   23.6448   -5.6109 N   0  0  0  0  0  0  0  0  0  0  0  0
    1.1415   23.2578   -6.4788 C   0  0  0  0  0  0  0  0  0  0  0  0
    1.1004   22.0051   -7.3088 C   0  0  0  0  0  0  0  0  0  0  0  0
   -0.0088   21.7548   -8.2661 C   0  0  0  0  0  0  0  0  0  0  0  0
   -0.1785   22.5496   -9.4061 C   0  0  0  0  0  0  0  0  0  0  0  0
    0.6586   23.5689   -9.6490 F   0  0  0  0  0  0  0  0  0  0  0  0
   -1.2322   22.3377  -10.2978 C   0  0  0  0  0  0  0  0  0  0  0  0
   -2.1286   21.2936  -10.0795 C   0  0  0  0  0  0  0  0  0  0  0  0
   -1.9696   20.4761   -8.9627 C   0  0  0  0  0  0  0  0  0  0  0  0
   -0.9286   20.7180   -8.0644 C   0  0  0  0  0  0  0  0  0  0  0  0
   -0.8183   19.9125   -6.9977 F   0  0  0  0  0  0  0  0  0  0  0  0
    2.1038   21.1159   -7.1865 C   0  0  0  0  0  0  0  0  0  0  0  0
    2.2249   19.8715   -7.9371 C   0  0  0  0  0  0  0  0  0  0  0  0
    3.3402   19.2346   -7.5485 C   0  0  0  0  0  0  0  0  0  0  0  0
    4.0357   20.0479   -6.5463 C   0  0  0  0  0  0  0  0  0  0  0  0
    3.2165   21.1349   -6.3792 N   0  0  0  0  0  0  0  0  0  0  0  0
    0.0290   24.2009   -6.6500 C   0  0  0  0  0  0  0  0  0  0  0  0
    0.3964   25.1942   -5.8534 C   0  0  0  0  0  0  0  0  0  0  0  0
    7.2429   21.0693   -3.3533 C   0  0  0  0  0  0  0  0  0  0  0  0
    7.0405   20.1360   -4.2714 C   0  0  0  0  0  0  0  0  0  0  0  0
    6.0086   17.4011   -5.5087 C   0  0  0  0  0  0  0  0  0  0  0  0
    6.5317   16.1888   -5.9506 C   0  0  0  0  0  0  0  0  0  0  0  0
    3.7358    5.5126   -5.8809 C   0  0  0  0  0  0  0  0  0  0  0  0
    4.7969    5.3778   -6.7065 C   0  0  0  0  0  0  0  0  0  0  0  0
    5.6823    6.3986   -7.2701 C   0  0  0  0  0  0  0  0  0  0  0  0
    5.6054    6.7998   -8.5981 C   0  0  0  0  0  0  0  0  0  0  0  0
    6.5349    7.7250   -9.0992 C   0  0  0  0  0  0  0  0  0  0  0  0
    6.3556    8.1826  -10.7646 Cl  0  0  0  0  0  0  0  0  0  0  0  0
    7.5765    8.2597   -8.3021 C   0  0  0  0  0  0  0  0  0  0  0  0
    8.3825    9.1432   -8.9645 O   0  0  0  0  0  0  0  0  0  0  0  0
    9.3280    9.9844   -8.3296 C   0  0  0  0  0  0  0  0  0  0  0  0
    8.8404   11.0130   -7.3241 C   0  0  0  0  0  0  0  0  0  0  0  0
    9.4840   11.5041   -6.4106 O   0  0  0  0  0  0  0  0  0  0  0  0
    7.5817   11.4229   -7.5464 O   0  5  0  0  0  0  0  0  0  0  0  0
    7.6619    7.8072   -6.9786 C   0  0  0  0  0  0  0  0  0  0  0  0
    8.9085    8.2132   -5.8560 Cl  0  0  0  0  0  0  0  0  0  0  0  0
    6.7093    6.9050   -6.4716 C   0  0  0  0  0  0  0  0  0  0  0  0
    3.2380    4.2431   -5.2679 C   0  0  0  0  0  0  0  0  0  0  0  0
    3.7138    3.1597   -5.6141 O   0  0  0  0  0  0  0  0  0  0  0  0
    2.7499    2.4444   -2.9097 C   0  0  0  0  0  0  0  0  0  0  0  0
    2.3288    1.3750   -2.1139 C   0  0  0  0  0  0  0  0  0  0  0  0
    0.5630   -0.8517    0.5645 H   0  0  0  0  0  0  0  0  0  0  0  0
    0.7122    0.8892    0.5597 H   0  0  0  0  0  0  0  0  0  0  0  0
    2.0485   -0.1036    0.0290 H   0  0  0  0  0  0  0  0  0  0  0  0
   -0.9609    1.5649   -2.6982 H   0  0  0  0  0  0  0  0  0  0  0  0
   -0.2458    3.4835   -3.9963 H   0  0  0  0  0  0  0  0  0  0  0  0
    1.6702    7.6034   -4.3603 H   0  0  0  0  0  0  0  0  0  0  0  0
    4.0301    8.0514   -6.7232 H   0  0  0  0  0  0  0  0  0  0  0  0
    2.1906    9.0726   -4.6604 H   0  0  0  0  0  0  0  0  0  0  0  0
    2.3012    9.7462   -6.2771 H   0  0  0  0  0  0  0  0  0  0  0  0
    4.4871    9.7227   -4.2245 H   0  0  0  0  0  0  0  0  0  0  0  0
    3.4992   11.1190   -4.7373 H   0  0  0  0  0  0  0  0  0  0  0  0
    5.4733    9.6523   -6.4114 H   0  0  0  0  0  0  0  0  0  0  0  0
    5.6389   11.2777   -5.6770 H   0  0  0  0  0  0  0  0  0  0  0  0
    3.5507   10.6406   -7.6775 H   0  0  0  0  0  0  0  0  0  0  0  0
    5.1897   11.2310   -8.0872 H   0  0  0  0  0  0  0  0  0  0  0  0
    3.1880   12.6842   -6.4401 H   0  0  0  0  0  0  0  0  0  0  0  0
    3.6230   12.9879   -8.1545 H   0  0  0  0  0  0  0  0  0  0  0  0
    5.4004   13.3644   -5.8044 H   0  0  0  0  0  0  0  0  0  0  0  0
    4.5989   14.6230   -6.7749 H   0  0  0  0  0  0  0  0  0  0  0  0
    6.3128   12.8848   -8.2246 H   0  0  0  0  0  0  0  0  0  0  0  0
    7.1562   17.0280   -9.1413 H   0  0  0  0  0  0  0  0  0  0  0  0
    6.4038   19.1859   -8.3253 H   0  0  0  0  0  0  0  0  0  0  0  0
   10.7417   23.8401   -1.5420 H   0  0  0  0  0  0  0  0  0  0  0  0
   10.2418   23.8630    0.8355 H   0  0  0  0  0  0  0  0  0  0  0  0
    7.9416   23.6270    1.5797 H   0  0  0  0  0  0  0  0  0  0  0  0
    5.9609   25.8946   -1.5373 H   0  0  0  0  0  0  0  0  0  0  0  0
    3.7499   27.0981   -2.2162 H   0  0  0  0  0  0  0  0  0  0  0  0
    3.9635   23.5146   -4.2770 H   0  0  0  0  0  0  0  0  0  0  0  0
   -1.2720   28.2935   -2.5524 H   0  0  0  0  0  0  0  0  0  0  0  0
   -0.2072   30.3736   -3.2171 H   0  0  0  0  0  0  0  0  0  0  0  0
    1.9520   30.3157   -4.3286 H   0  0  0  0  0  0  0  0  0  0  0  0
   -1.3468   22.9539  -11.1177 H   0  0  0  0  0  0  0  0  0  0  0  0
   -2.9041   21.1272  -10.7398 H   0  0  0  0  0  0  0  0  0  0  0  0
   -2.6208   19.6923   -8.7995 H   0  0  0  0  0  0  0  0  0  0  0  0
    1.5604   19.5352   -8.6515 H   0  0  0  0  0  0  0  0  0  0  0  0
    3.6580   18.3176   -7.8994 H   0  0  0  0  0  0  0  0  0  0  0  0
    3.4071   21.8603   -5.7415 H   0  0  0  0  0  0  0  0  0  0  0  0
   -0.8160   24.1133   -7.2360 H   0  0  0  0  0  0  0  0  0  0  0  0
   -0.1264   26.0777   -5.7480 H   0  0  0  0  0  0  0  0  0  0  0  0
    8.0005   21.0442   -2.6530 H   0  0  0  0  0  0  0  0  0  0  0  0
    7.6031   19.2970   -4.4826 H   0  0  0  0  0  0  0  0  0  0  0  0
    5.6992   17.5014   -4.5293 H   0  0  0  0  0  0  0  0  0  0  0  0
    6.6827   15.4131   -5.2869 H   0  0  0  0  0  0  0  0  0  0  0  0
    5.0167    4.4077   -6.9817 H   0  0  0  0  0  0  0  0  0  0  0  0
    4.8689    6.4197   -9.2130 H   0  0  0  0  0  0  0  0  0  0  0  0
    9.8403   10.5192   -9.1019 H   0  0  0  0  0  0  0  0  0  0  0  0
    9.9171    9.3111   -7.7427 H   0  0  0  0  0  0  0  0  0  0  0  0
    6.7712    6.6100   -5.4846 H   0  0  0  0  0  0  0  0  0  0  0  0
    3.7569    2.6522   -2.9982 H   0  0  0  0  0  0  0  0  0  0  0  0
    3.0223    0.8080   -1.6015 H   0  0  0  0  0  0  0  0  0  0  0  0
  1  2  1  0  0  0  0
  1 95  1  0  0  0  0
  1 96  1  0  0  0  0
  1 97  1  0  0  0  0
  2  3  1  0  0  0  0
  3  4  1  0  0  0  0
  3 94  2  0  0  0  0
  4  5  2  0  0  0  0
  4 98  1  0  0  0  0
  5  6  1  0  0  0  0
  5 99  1  0  0  0  0
  6  7  1  0  0  0  0
  6 93  2  0  0  0  0
  7  8  1  0  0  0  0
  7 91  1  0  0  0  0
  8  9  2  0  0  0  0
  8 10  1  0  0  0  0
 10 11  2  0  0  0  0
 10100  1  0  0  0  0
 11 12  1  0  0  0  0
 11 76  1  0  0  0  0
 12 13  1  0  0  0  0
 12101  1  0  0  0  0
 13 14  1  0  0  0  0
 13102  1  0  0  0  0
 13103  1  0  0  0  0
 14 15  1  0  0  0  0
 14104  1  0  0  0  0
 14105  1  0  0  0  0
 15 16  1  0  0  0  0
 15106  1  0  0  0  0
 15107  1  0  0  0  0
 16 17  1  0  0  0  0
 16108  1  0  0  0  0
 16109  1  0  0  0  0
 17 18  1  0  0  0  0
 17110  1  0  0  0  0
 17111  1  0  0  0  0
 18 19  1  0  0  0  0
 18112  1  0  0  0  0
 18113  1  0  0  0  0
 19 20  1  0  0  0  0
 19114  1  0  0  0  0
 20 21  2  0  0  0  0
 20 22  1  0  0  0  0
 22 23  1  0  0  0  0
 22 75  2  0  0  0  0
 23 24  2  0  0  0  0
 23115  1  0  0  0  0
 24 25  1  0  0  0  0
 24116  1  0  0  0  0
 25 26  1  0  0  0  0
 25 74  2  0  0  0  0
 26 27  1  0  0  0  0
 26 68  2  0  0  0  0
 27 28  2  0  0  0  0
 27 73  1  0  0  0  0
 28 29  1  0  0  0  0
 29 30  2  0  0  0  0
 29 72  1  0  0  0  0
 30 31  1  0  0  0  0
 30 39  1  0  0  0  0
 31 32  1  0  0  0  0
 31 37  2  0  0  0  0
 32 33  1  0  0  0  0
 32 34  2  0  0  0  0
 34 35  1  0  0  0  0
 34117  1  0  0  0  0
 35 36  2  0  0  0  0
 35118  1  0  0  0  0
 36 37  1  0  0  0  0
 36119  1  0  0  0  0
 37 38  1  0  0  0  0
 39 40  2  0  0  0  0
 39 43  1  0  0  0  0
 40 41  1  0  0  0  0
 40120  1  0  0  0  0
 41 42  2  0  0  0  0
 41121  1  0  0  0  0
 42 43  1  0  0  0  0
 42 44  1  0  0  0  0
 43122  1  0  0  0  0
 44 45  1  0  0  0  0
 44 53  2  0  0  0  0
 45 46  1  0  0  0  0
 45 51  2  0  0  0  0
 46 47  1  0  0  0  0
 46 48  2  0  0  0  0
 48 49  1  0  0  0  0
 48123  1  0  0  0  0
 49 50  2  0  0  0  0
 49124  1  0  0  0  0
 50 51  1  0  0  0  0
 50125  1  0  0  0  0
 51 52  1  0  0  0  0
 53 54  1  0  0  0  0
 53 71  1  0  0  0  0
 54 55  2  0  0  0  0
 55 56  1  0  0  0  0
 55 70  1  0  0  0  0
 56 57  1  0  0  0  0
 56 65  2  0  0  0  0
 57 58  1  0  0  0  0
 57 63  2  0  0  0  0
 58 59  1  0  0  0  0
 58 60  2  0  0  0  0
 60 61  1  0  0  0  0
 60126  1  0  0  0  0
 61 62  2  0  0  0  0
 61127  1  0  0  0  0
 62 63  1  0  0  0  0
 62128  1  0  0  0  0
 63 64  1  0  0  0  0
 65 66  1  0  0  0  0
 65 69  1  0  0  0  0
 66 67  2  0  0  0  0
 66129  1  0  0  0  0
 67 68  1  0  0  0  0
 67130  1  0  0  0  0
 68 69  1  0  0  0  0
 69131  1  0  0  0  0
 70 71  2  0  0  0  0
 70132  1  0  0  0  0
 71133  1  0  0  0  0
 72 73  2  0  0  0  0
 72134  1  0  0  0  0
 73135  1  0  0  0  0
 74 75  1  0  0  0  0
 74136  1  0  0  0  0
 75137  1  0  0  0  0
 76 77  2  0  0  0  0
 76 91  1  0  0  0  0
 77 78  1  0  0  0  0
 77138  1  0  0  0  0
 78 79  1  0  0  0  0
 78 90  2  0  0  0  0
 79 80  2  0  0  0  0
 79139  1  0  0  0  0
 80 81  1  0  0  0  0
 80 82  1  0  0  0  0
 82 83  1  0  0  0  0
 82 88  2  0  0  0  0
 83 84  1  0  0  0  0
 84 85  1  0  0  0  0
 84140  1  0  0  0  0
 84141  1  0  0  0  0
 85 86  2  0  0  0  0
 85 87  1  0  0  0  0
 88 89  1  0  0  0  0
 88 90  1  0  0  0  0
 90142  1  0  0  0  0
 91 92  2  0  0  0  0
 93 94  1  0  0  0  0
 93143  1  0  0  0  0
 94144  1  0  0  0  0
M  CHG  2  10   1  87  -1
M  END
$$$$
