1_0_4472
 OpenBabel04152301373D

122132  0  0  0  0  0  0  0  0999 V2000
    1.0585   -0.0182    0.0288 O   0  0  0  0  0  0  0  0  0  0  0  0
    2.2867    0.0027    0.0207 C   0  0  0  0  0  0  0  0  0  0  0  0
    2.9729    0.9630    0.7185 N   0  0  0  0  0  0  0  0  0  0  0  0
    4.3910    1.2761    0.6703 C   0  0  0  0  0  0  0  0  0  0  0  0
    4.6442    2.7478    0.3768 C   0  0  0  0  0  0  0  0  0  0  0  0
    4.1673    3.7017    1.4720 C   0  0  0  0  0  0  0  0  0  0  0  0
    4.7424    3.4282    2.8652 C   0  0  0  0  0  0  0  0  0  0  0  0
    6.2707    3.3426    2.9320 C   0  0  0  0  0  0  0  0  0  0  0  0
    6.9966    4.5839    2.4155 C   0  0  0  0  0  0  0  0  0  0  0  0
    6.7293    5.7313    3.2641 N   0  0  0  0  0  0  0  0  0  0  0  0
    7.6244    6.4513    4.0238 C   0  0  0  0  0  0  0  0  0  0  0  0
    7.1737    7.2145    4.8877 O   0  0  0  0  0  0  0  0  0  0  0  0
    9.0579    6.2888    3.7661 C   0  0  0  0  0  0  0  0  0  0  0  0
    9.9850    6.3023    4.7408 N   0  0  0  0  0  0  0  0  0  0  0  0
   11.1866    6.1129    4.0544 O   0  0  0  0  0  0  0  0  0  0  0  0
   10.8677    6.0307    2.7325 C   0  0  0  0  0  0  0  0  0  0  0  0
   11.9650    5.8820    1.7969 C   0  0  0  0  0  0  0  0  0  0  0  0
   12.8129    4.7667    1.9244 C   0  0  0  0  0  0  0  0  0  0  0  0
   13.8394    4.5399    1.0077 C   0  0  0  0  0  0  0  0  0  0  0  0
   14.0353    5.4257   -0.0456 C   0  0  0  0  0  0  0  0  0  0  0  0
   13.2082    6.5402   -0.1793 C   0  0  0  0  0  0  0  0  0  0  0  0
   12.1676    6.7900    0.7388 C   0  0  0  0  0  0  0  0  0  0  0  0
   11.3115    8.0183    0.5191 C   0  0  0  0  0  0  0  0  0  0  0  0
   12.0606    9.0935    0.1336 F   0  0  0  0  0  0  0  0  0  0  0  0
   10.3980    7.8373   -0.4743 F   0  0  0  0  0  0  0  0  0  0  0  0
   10.6187    8.4502    1.6050 F   0  0  0  0  0  0  0  0  0  0  0  0
    9.5834    6.1164    2.4947 N   0  0  0  0  0  0  0  0  0  0  0  0
    3.0387   -1.0075   -0.7510 C   0  0  0  0  0  0  0  0  0  0  0  0
    4.1371   -1.6564   -0.1790 C   0  0  0  0  0  0  0  0  0  0  0  0
    4.8814   -2.5522   -0.9355 C   0  0  0  0  0  0  0  0  0  0  0  0
    4.4596   -2.9065   -2.2270 C   0  0  0  0  0  0  0  0  0  0  0  0
    5.1296   -4.0329   -2.9196 C   0  0  0  0  0  0  0  0  0  0  0  0
    5.9048   -3.8294   -4.1870 C   0  0  0  0  0  0  0  0  0  0  0  0
    6.5225   -4.7207   -4.9199 N   0  0  0  0  0  0  0  0  0  0  0  0
    7.0602   -4.0254   -5.9946 C   0  0  0  0  0  0  0  0  0  0  0  0
    7.7970   -4.5110   -7.0219 C   0  0  0  0  0  0  0  0  0  0  0  0
    8.2401   -3.5584   -8.0932 C   0  0  0  0  0  0  0  0  0  0  0  0
    9.2782   -2.6422   -7.8881 C   0  0  0  0  0  0  0  0  0  0  0  0
    9.8424   -2.5129   -6.6779 F   0  0  0  0  0  0  0  0  0  0  0  0
    9.7553   -1.8373   -8.9254 C   0  0  0  0  0  0  0  0  0  0  0  0
    9.2102   -1.9502  -10.2036 C   0  0  0  0  0  0  0  0  0  0  0  0
    8.1738   -2.8530  -10.4300 C   0  0  0  0  0  0  0  0  0  0  0  0
    7.6920   -3.6373   -9.3808 C   0  0  0  0  0  0  0  0  0  0  0  0
    6.7000   -4.5007   -9.6464 F   0  0  0  0  0  0  0  0  0  0  0  0
    8.1752   -5.8946   -7.1651 C   0  0  0  0  0  0  0  0  0  0  0  0
    8.9864   -6.4683   -8.1295 C   0  0  0  0  0  0  0  0  0  0  0  0
    9.0094   -7.8499   -7.9166 C   0  0  0  0  0  0  0  0  0  0  0  0
    8.2555   -8.1314   -6.7892 C   0  0  0  0  0  0  0  0  0  0  0  0
    7.7564   -6.9216   -6.3332 N   0  0  0  0  0  0  0  0  0  0  0  0
    7.9970   -9.4115   -6.1829 C   0  0  0  0  0  0  0  0  0  0  0  0
    8.5325  -10.6360   -6.8622 C   0  0  0  0  0  0  0  0  0  0  0  0
    7.6870  -11.5374   -7.5214 C   0  0  0  0  0  0  0  0  0  0  0  0
    6.3589  -11.3462   -7.5242 F   0  0  0  0  0  0  0  0  0  0  0  0
    8.1880  -12.6743   -8.1560 C   0  0  0  0  0  0  0  0  0  0  0  0
    9.5607  -12.9144   -8.1701 C   0  0  0  0  0  0  0  0  0  0  0  0
   10.4221  -12.0218   -7.5351 C   0  0  0  0  0  0  0  0  0  0  0  0
    9.9067  -10.9034   -6.8799 C   0  0  0  0  0  0  0  0  0  0  0  0
   10.7703  -10.0759   -6.2721 F   0  0  0  0  0  0  0  0  0  0  0  0
    7.3133   -9.6011   -5.0289 C   0  0  0  0  0  0  0  0  0  0  0  0
    6.7113   -8.6597   -4.2073 N   0  0  0  0  0  0  0  0  0  0  0  0
    6.1439   -9.3399   -3.2412 C   0  0  0  0  0  0  0  0  0  0  0  0
    5.3538   -8.8354   -2.0703 C   0  0  0  0  0  0  0  0  0  0  0  0
    4.7730   -9.7738   -1.0778 C   0  0  0  0  0  0  0  0  0  0  0  0
    5.5857  -10.5193   -0.2177 C   0  0  0  0  0  0  0  0  0  0  0  0
    6.9200  -10.3960   -0.2737 F   0  0  0  0  0  0  0  0  0  0  0  0
    5.0449  -11.4369    0.6844 C   0  0  0  0  0  0  0  0  0  0  0  0
    3.6631  -11.6008    0.7666 C   0  0  0  0  0  0  0  0  0  0  0  0
    2.8319  -10.8508   -0.0619 C   0  0  0  0  0  0  0  0  0  0  0  0
    3.3878   -9.9614   -0.9810 C   0  0  0  0  0  0  0  0  0  0  0  0
    2.5530   -9.2704   -1.7715 F   0  0  0  0  0  0  0  0  0  0  0  0
    5.1373   -7.5130   -1.9566 C   0  0  0  0  0  0  0  0  0  0  0  0
    4.3670   -6.8821   -0.8934 C   0  0  0  0  0  0  0  0  0  0  0  0
    4.2567   -5.5735   -1.1584 C   0  0  0  0  0  0  0  0  0  0  0  0
    5.0102   -5.2615   -2.3778 C   0  0  0  0  0  0  0  0  0  0  0  0
    5.5131   -6.4734   -2.7728 N   0  0  0  0  0  0  0  0  0  0  0  0
    6.3164  -10.7944   -3.3447 C   0  0  0  0  0  0  0  0  0  0  0  0
    7.0706  -10.8970   -4.4292 C   0  0  0  0  0  0  0  0  0  0  0  0
    6.6874   -2.6365   -5.8268 C   0  0  0  0  0  0  0  0  0  0  0  0
    5.9976   -2.4563   -4.7065 C   0  0  0  0  0  0  0  0  0  0  0  0
    3.3264   -2.2882   -2.7783 C   0  0  0  0  0  0  0  0  0  0  0  0
    2.6262   -1.3259   -2.0473 C   0  0  0  0  0  0  0  0  0  0  0  0
    2.4342    1.5124    1.3327 H   0  0  0  0  0  0  0  0  0  0  0  0
    4.8480    0.6878   -0.0978 H   0  0  0  0  0  0  0  0  0  0  0  0
    4.8093    1.0555    1.6301 H   0  0  0  0  0  0  0  0  0  0  0  0
    4.1368    3.0001   -0.5309 H   0  0  0  0  0  0  0  0  0  0  0  0
    5.7053    2.8673    0.3088 H   0  0  0  0  0  0  0  0  0  0  0  0
    3.1014    3.6303    1.5332 H   0  0  0  0  0  0  0  0  0  0  0  0
    4.5129    4.6748    1.1919 H   0  0  0  0  0  0  0  0  0  0  0  0
    4.3428    2.4982    3.2121 H   0  0  0  0  0  0  0  0  0  0  0  0
    4.4639    4.2644    3.4720 H   0  0  0  0  0  0  0  0  0  0  0  0
    6.5846    2.5038    2.3466 H   0  0  0  0  0  0  0  0  0  0  0  0
    6.5259    3.2486    3.9669 H   0  0  0  0  0  0  0  0  0  0  0  0
    6.6618    4.7975    1.4219 H   0  0  0  0  0  0  0  0  0  0  0  0
    8.0492    4.3918    2.4221 H   0  0  0  0  0  0  0  0  0  0  0  0
    5.7925    6.0317    3.3010 H   0  0  0  0  0  0  0  0  0  0  0  0
   12.6736    4.1078    2.7063 H   0  0  0  0  0  0  0  0  0  0  0  0
   14.4523    3.7161    1.1112 H   0  0  0  0  0  0  0  0  0  0  0  0
   14.7917    5.2587   -0.7275 H   0  0  0  0  0  0  0  0  0  0  0  0
   13.3602    7.1934   -0.9636 H   0  0  0  0  0  0  0  0  0  0  0  0
    4.3942   -1.4702    0.8030 H   0  0  0  0  0  0  0  0  0  0  0  0
    5.7469   -2.9586   -0.5473 H   0  0  0  0  0  0  0  0  0  0  0  0
   10.5117   -1.1587   -8.7454 H   0  0  0  0  0  0  0  0  0  0  0  0
    9.5718   -1.3693  -10.9762 H   0  0  0  0  0  0  0  0  0  0  0  0
    7.7627   -2.9418  -11.3724 H   0  0  0  0  0  0  0  0  0  0  0  0
    9.4877   -5.9631   -8.8768 H   0  0  0  0  0  0  0  0  0  0  0  0
    9.5041   -8.5424   -8.5003 H   0  0  0  0  0  0  0  0  0  0  0  0
    7.1888   -6.8083   -5.5368 H   0  0  0  0  0  0  0  0  0  0  0  0
    7.5429  -13.3367   -8.6144 H   0  0  0  0  0  0  0  0  0  0  0  0
    9.9370  -13.7481   -8.6479 H   0  0  0  0  0  0  0  0  0  0  0  0
   11.4405  -12.1881   -7.5496 H   0  0  0  0  0  0  0  0  0  0  0  0
    5.6678  -11.9937    1.2902 H   0  0  0  0  0  0  0  0  0  0  0  0
    3.2587  -12.2733    1.4368 H   0  0  0  0  0  0  0  0  0  0  0  0
    1.8071  -10.9530    0.0042 H   0  0  0  0  0  0  0  0  0  0  0  0
    3.9712   -7.3640   -0.0711 H   0  0  0  0  0  0  0  0  0  0  0  0
    3.7254   -4.8924   -0.5937 H   0  0  0  0  0  0  0  0  0  0  0  0
    6.0875   -6.5881   -3.5641 H   0  0  0  0  0  0  0  0  0  0  0  0
    5.9475  -11.5400   -2.7339 H   0  0  0  0  0  0  0  0  0  0  0  0
    7.4384  -11.7872   -4.7996 H   0  0  0  0  0  0  0  0  0  0  0  0
    6.9267   -1.8842   -6.4915 H   0  0  0  0  0  0  0  0  0  0  0  0
    5.6243   -1.5818   -4.3053 H   0  0  0  0  0  0  0  0  0  0  0  0
    3.0098   -2.5454   -3.7263 H   0  0  0  0  0  0  0  0  0  0  0  0
    1.8085   -0.8526   -2.4625 H   0  0  0  0  0  0  0  0  0  0  0  0
  1  2  2  0  0  0  0
  2  3  1  0  0  0  0
  2 28  1  0  0  0  0
  3  4  1  0  0  0  0
  3 82  1  0  0  0  0
  4  5  1  0  0  0  0
  4 83  1  0  0  0  0
  4 84  1  0  0  0  0
  5  6  1  0  0  0  0
  5 85  1  0  0  0  0
  5 86  1  0  0  0  0
  6  7  1  0  0  0  0
  6 87  1  0  0  0  0
  6 88  1  0  0  0  0
  7  8  1  0  0  0  0
  7 89  1  0  0  0  0
  7 90  1  0  0  0  0
  8  9  1  0  0  0  0
  8 91  1  0  0  0  0
  8 92  1  0  0  0  0
  9 10  1  0  0  0  0
  9 93  1  0  0  0  0
  9 94  1  0  0  0  0
 10 11  1  0  0  0  0
 10 95  1  0  0  0  0
 11 12  2  0  0  0  0
 11 13  1  0  0  0  0
 13 14  2  0  0  0  0
 13 27  1  0  0  0  0
 14 15  1  0  0  0  0
 15 16  1  0  0  0  0
 16 17  1  0  0  0  0
 16 27  2  0  0  0  0
 17 18  1  0  0  0  0
 17 22  2  0  0  0  0
 18 19  2  0  0  0  0
 18 96  1  0  0  0  0
 19 20  1  0  0  0  0
 19 97  1  0  0  0  0
 20 21  2  0  0  0  0
 20 98  1  0  0  0  0
 21 22  1  0  0  0  0
 21 99  1  0  0  0  0
 22 23  1  0  0  0  0
 23 24  1  0  0  0  0
 23 25  1  0  0  0  0
 23 26  1  0  0  0  0
 28 29  1  0  0  0  0
 28 81  2  0  0  0  0
 29 30  2  0  0  0  0
 29100  1  0  0  0  0
 30 31  1  0  0  0  0
 30101  1  0  0  0  0
 31 32  1  0  0  0  0
 31 80  2  0  0  0  0
 32 33  1  0  0  0  0
 32 74  2  0  0  0  0
 33 34  2  0  0  0  0
 33 79  1  0  0  0  0
 34 35  1  0  0  0  0
 35 36  2  0  0  0  0
 35 78  1  0  0  0  0
 36 37  1  0  0  0  0
 36 45  1  0  0  0  0
 37 38  1  0  0  0  0
 37 43  2  0  0  0  0
 38 39  1  0  0  0  0
 38 40  2  0  0  0  0
 40 41  1  0  0  0  0
 40102  1  0  0  0  0
 41 42  2  0  0  0  0
 41103  1  0  0  0  0
 42 43  1  0  0  0  0
 42104  1  0  0  0  0
 43 44  1  0  0  0  0
 45 46  2  0  0  0  0
 45 49  1  0  0  0  0
 46 47  1  0  0  0  0
 46105  1  0  0  0  0
 47 48  2  0  0  0  0
 47106  1  0  0  0  0
 48 49  1  0  0  0  0
 48 50  1  0  0  0  0
 49107  1  0  0  0  0
 50 51  1  0  0  0  0
 50 59  2  0  0  0  0
 51 52  1  0  0  0  0
 51 57  2  0  0  0  0
 52 53  1  0  0  0  0
 52 54  2  0  0  0  0
 54 55  1  0  0  0  0
 54108  1  0  0  0  0
 55 56  2  0  0  0  0
 55109  1  0  0  0  0
 56 57  1  0  0  0  0
 56110  1  0  0  0  0
 57 58  1  0  0  0  0
 59 60  1  0  0  0  0
 59 77  1  0  0  0  0
 60 61  2  0  0  0  0
 61 62  1  0  0  0  0
 61 76  1  0  0  0  0
 62 63  1  0  0  0  0
 62 71  2  0  0  0  0
 63 64  1  0  0  0  0
 63 69  2  0  0  0  0
 64 65  1  0  0  0  0
 64 66  2  0  0  0  0
 66 67  1  0  0  0  0
 66111  1  0  0  0  0
 67 68  2  0  0  0  0
 67112  1  0  0  0  0
 68 69  1  0  0  0  0
 68113  1  0  0  0  0
 69 70  1  0  0  0  0
 71 72  1  0  0  0  0
 71 75  1  0  0  0  0
 72 73  2  0  0  0  0
 72114  1  0  0  0  0
 73 74  1  0  0  0  0
 73115  1  0  0  0  0
 74 75  1  0  0  0  0
 75116  1  0  0  0  0
 76 77  2  0  0  0  0
 76117  1  0  0  0  0
 77118  1  0  0  0  0
 78 79  2  0  0  0  0
 78119  1  0  0  0  0
 79120  1  0  0  0  0
 80 81  1  0  0  0  0
 80121  1  0  0  0  0
 81122  1  0  0  0  0
M  END
$$$$
