1_0_6902
 OpenBabel04152301353D

127136  0  0  1  0  0  0  0  0999 V2000
    4.1927    4.2686   -7.7152 C   0  0  0  0  0  0  0  0  0  0  0  0
    3.1797    4.1320   -6.6209 C   0  0  0  0  0  0  0  0  0  0  0  0
    1.8794    3.6958   -6.8863 C   0  0  0  0  0  0  0  0  0  0  0  0
    0.9155    3.7022   -5.8757 C   0  0  0  0  0  0  0  0  0  0  0  0
   -0.3255    3.3091   -6.1964 F   0  0  0  0  0  0  0  0  0  0  0  0
    1.1976    4.1653   -4.5831 C   0  0  0  0  0  0  0  0  0  0  0  0
    0.1009    4.3760   -3.5174 C   0  0  2  0  0  0  0  0  0  0  0  0
    0.1003    3.1712   -2.5631 C   0  0  0  0  0  0  0  0  0  0  0  0
   -1.2370    4.5331   -4.1117 N   0  0  0  0  0  0  0  0  0  0  0  0
   -2.3737    4.8425   -3.4271 C   0  0  0  0  0  0  0  0  0  0  0  0
   -3.4756    4.8531   -3.9573 O   0  0  0  0  0  0  0  0  0  0  0  0
    0.4108    5.7026   -2.7239 C   0  0  0  0  0  0  0  0  0  0  0  0
    0.7640    5.6873   -1.5408 O   0  0  0  0  0  0  0  0  0  0  0  0
    0.3865    6.9199   -3.3498 N   0  0  0  0  0  0  0  0  0  0  0  0
    0.1273    7.2477   -4.7406 C   0  0  0  0  0  0  0  0  0  0  0  0
   -0.9880    8.2782   -4.8758 C   0  0  0  0  0  0  0  0  0  0  0  0
   -0.6469    9.6602   -4.3080 C   0  0  0  0  0  0  0  0  0  0  0  0
    0.6031   10.3254   -4.8938 C   0  0  0  0  0  0  0  0  0  0  0  0
    0.6458   10.4182   -6.4191 C   0  0  0  0  0  0  0  0  0  0  0  0
   -0.5596   11.0951   -7.0595 C   0  0  0  0  0  0  0  0  0  0  0  0
   -0.6873   12.4971   -6.6938 N   0  0  0  0  0  0  0  0  0  0  0  0
   -0.9211   13.5797   -7.5088 C   0  0  0  0  0  0  0  0  0  0  0  0
   -0.8842   14.7216   -7.0612 O   0  0  0  0  0  0  0  0  0  0  0  0
   -1.1718   13.3553   -8.9480 C   0  0  0  0  0  0  0  0  0  0  0  0
   -2.0973   12.3955   -9.3639 C   0  0  0  0  0  0  0  0  0  0  0  0
   -2.1487   12.0287  -10.7041 C   0  0  0  0  0  0  0  0  0  0  0  0
   -1.3560   12.6910  -11.6560 C   0  0  0  0  0  0  0  0  0  0  0  0
   -1.3770   12.2353  -13.0698 C   0  0  0  0  0  0  0  0  0  0  0  0
   -0.1518   11.6238  -13.6969 C   0  0  0  0  0  0  0  0  0  0  0  0
    0.0116   11.1601  -14.9113 N   0  0  0  0  0  0  0  0  0  0  0  0
    1.3317   10.7320  -14.9826 C   0  0  0  0  0  0  0  0  0  0  0  0
    1.9795   10.1464  -16.0189 C   0  0  0  0  0  0  0  0  0  0  0  0
    3.4283    9.8058  -15.8236 C   0  0  0  0  0  0  0  0  0  0  0  0
    4.4278   10.5389  -16.4762 C   0  0  0  0  0  0  0  0  0  0  0  0
    4.1067   11.5719  -17.2694 F   0  0  0  0  0  0  0  0  0  0  0  0
    5.7794   10.2207  -16.3316 C   0  0  0  0  0  0  0  0  0  0  0  0
    6.1615    9.1626  -15.5096 C   0  0  0  0  0  0  0  0  0  0  0  0
    5.1852    8.4222  -14.8455 C   0  0  0  0  0  0  0  0  0  0  0  0
    3.8351    8.7365  -15.0153 C   0  0  0  0  0  0  0  0  0  0  0  0
    2.9290    8.0032  -14.3510 F   0  0  0  0  0  0  0  0  0  0  0  0
    1.3752    9.8458  -17.2910 C   0  0  0  0  0  0  0  0  0  0  0  0
    1.9439    9.2334  -18.3950 C   0  0  0  0  0  0  0  0  0  0  0  0
    0.9844    9.1853  -19.4131 C   0  0  0  0  0  0  0  0  0  0  0  0
   -0.1925    9.7332  -18.9299 C   0  0  0  0  0  0  0  0  0  0  0  0
    0.0621   10.1362  -17.6288 N   0  0  0  0  0  0  0  0  0  0  0  0
   -1.4558    9.8843  -19.6040 C   0  0  0  0  0  0  0  0  0  0  0  0
   -1.5613    9.4222  -21.0262 C   0  0  0  0  0  0  0  0  0  0  0  0
   -1.5837    8.0567  -21.3345 C   0  0  0  0  0  0  0  0  0  0  0  0
   -1.5113    7.1368  -20.3608 F   0  0  0  0  0  0  0  0  0  0  0  0
   -1.6793    7.6096  -22.6528 C   0  0  0  0  0  0  0  0  0  0  0  0
   -1.7722    8.5304  -23.6949 C   0  0  0  0  0  0  0  0  0  0  0  0
   -1.7539    9.8948  -23.4110 C   0  0  0  0  0  0  0  0  0  0  0  0
   -1.6351   10.3299  -22.0903 C   0  0  0  0  0  0  0  0  0  0  0  0
   -1.6354   11.6512  -21.8579 F   0  0  0  0  0  0  0  0  0  0  0  0
   -2.5780   10.3976  -19.0440 C   0  0  0  0  0  0  0  0  0  0  0  0
   -2.7672   10.8857  -17.7585 N   0  0  0  0  0  0  0  0  0  0  0  0
   -4.0125   11.2913  -17.7100 C   0  0  0  0  0  0  0  0  0  0  0  0
   -4.7664   11.9005  -16.5640 C   0  0  0  0  0  0  0  0  0  0  0  0
   -6.2015   12.2483  -16.7006 C   0  0  0  0  0  0  0  0  0  0  0  0
   -6.6266   13.5813  -16.7468 C   0  0  0  0  0  0  0  0  0  0  0  0
   -5.7358   14.5797  -16.6559 F   0  0  0  0  0  0  0  0  0  0  0  0
   -7.9753   13.9131  -16.8735 C   0  0  0  0  0  0  0  0  0  0  0  0
   -8.9311   12.9049  -16.9822 C   0  0  0  0  0  0  0  0  0  0  0  0
   -8.5302   11.5703  -16.9490 C   0  0  0  0  0  0  0  0  0  0  0  0
   -7.1798   11.2530  -16.7970 C   0  0  0  0  0  0  0  0  0  0  0  0
   -6.8299    9.9584  -16.7792 F   0  0  0  0  0  0  0  0  0  0  0  0
   -4.1241   12.1406  -15.4066 C   0  0  0  0  0  0  0  0  0  0  0  0
   -4.7232   12.7417  -14.2199 C   0  0  0  0  0  0  0  0  0  0  0  0
   -3.7793   12.8781  -13.2764 C   0  0  0  0  0  0  0  0  0  0  0  0
   -2.5209   12.3201  -13.7747 C   0  0  0  0  0  0  0  0  0  0  0  0
   -2.8165   11.9181  -15.0517 N   0  0  0  0  0  0  0  0  0  0  0  0
   -4.7535   11.1172  -18.9667 C   0  0  0  0  0  0  0  0  0  0  0  0
   -3.8433   10.5372  -19.7357 C   0  0  0  0  0  0  0  0  0  0  0  0
    1.9353   11.0147  -13.6980 C   0  0  0  0  0  0  0  0  0  0  0  0
    1.0489   11.5214  -12.8525 C   0  0  0  0  0  0  0  0  0  0  0  0
   -0.5344   13.7522  -11.2432 C   0  0  0  0  0  0  0  0  0  0  0  0
   -0.4232   14.0692   -9.8870 C   0  0  0  0  0  0  0  0  0  0  0  0
    2.5354    4.5139   -4.3073 C   0  0  0  0  0  0  0  0  0  0  0  0
    3.4958    4.5152   -5.3183 C   0  0  0  0  0  0  0  0  0  0  0  0
    4.7337    4.9397   -5.0297 F   0  0  0  0  0  0  0  0  0  0  0  0
    3.7705    3.9263   -8.6368 H   0  0  0  0  0  0  0  0  0  0  0  0
    5.0552    3.6814   -7.4781 H   0  0  0  0  0  0  0  0  0  0  0  0
    4.4763    5.2957   -7.8126 H   0  0  0  0  0  0  0  0  0  0  0  0
    1.6302    3.3677   -7.8325 H   0  0  0  0  0  0  0  0  0  0  0  0
   -0.6567    3.3060   -1.8190 H   0  0  0  0  0  0  0  0  0  0  0  0
    1.0562    3.0913   -2.0890 H   0  0  0  0  0  0  0  0  0  0  0  0
   -0.0990    2.2776   -3.1169 H   0  0  0  0  0  0  0  0  0  0  0  0
   -1.3169    4.4039   -5.0844 H   0  0  0  0  0  0  0  0  0  0  0  0
   -2.3021    5.0764   -2.4245 H   0  0  0  0  0  0  0  0  0  0  0  0
    0.5734    7.6915   -2.7677 H   0  0  0  0  0  0  0  0  0  0  0  0
   -0.1582    6.3568   -5.2599 H   0  0  0  0  0  0  0  0  0  0  0  0
    1.0201    7.6640   -5.1583 H   0  0  0  0  0  0  0  0  0  0  0  0
   -1.8495    7.9082   -4.3603 H   0  0  0  0  0  0  0  0  0  0  0  0
   -1.1540    8.4119   -5.9243 H   0  0  0  0  0  0  0  0  0  0  0  0
   -0.5009    9.5561   -3.2531 H   0  0  0  0  0  0  0  0  0  0  0  0
   -1.4671   10.2954   -4.5700 H   0  0  0  0  0  0  0  0  0  0  0  0
    1.4559    9.7640   -4.5737 H   0  0  0  0  0  0  0  0  0  0  0  0
    0.5927   11.3346   -4.5383 H   0  0  0  0  0  0  0  0  0  0  0  0
    0.7143    9.4245   -6.8098 H   0  0  0  0  0  0  0  0  0  0  0  0
    1.4916   11.0289   -6.6569 H   0  0  0  0  0  0  0  0  0  0  0  0
   -1.4445   10.5801   -6.7487 H   0  0  0  0  0  0  0  0  0  0  0  0
   -0.4234   11.0529   -8.1200 H   0  0  0  0  0  0  0  0  0  0  0  0
   -0.5939   12.6978   -5.7345 H   0  0  0  0  0  0  0  0  0  0  0  0
   -2.7384   11.9617   -8.6814 H   0  0  0  0  0  0  0  0  0  0  0  0
   -2.7742   11.2638  -11.0018 H   0  0  0  0  0  0  0  0  0  0  0  0
    6.4953   10.7690  -16.8334 H   0  0  0  0  0  0  0  0  0  0  0  0
    7.1599    8.9289  -15.3934 H   0  0  0  0  0  0  0  0  0  0  0  0
    5.4599    7.6419  -14.2285 H   0  0  0  0  0  0  0  0  0  0  0  0
    2.9094    8.8741  -18.4567 H   0  0  0  0  0  0  0  0  0  0  0  0
    1.1292    8.8062  -20.3620 H   0  0  0  0  0  0  0  0  0  0  0  0
   -0.5928   10.5655  -17.0321 H   0  0  0  0  0  0  0  0  0  0  0  0
   -1.6812    6.5978  -22.8560 H   0  0  0  0  0  0  0  0  0  0  0  0
   -1.8540    8.2040  -24.6705 H   0  0  0  0  0  0  0  0  0  0  0  0
   -1.8281   10.5827  -24.1767 H   0  0  0  0  0  0  0  0  0  0  0  0
   -8.2649   14.9035  -16.8867 H   0  0  0  0  0  0  0  0  0  0  0  0
   -9.9294   13.1448  -17.0866 H   0  0  0  0  0  0  0  0  0  0  0  0
   -9.2311   10.8179  -17.0367 H   0  0  0  0  0  0  0  0  0  0  0  0
   -5.7129   13.0173  -14.1221 H   0  0  0  0  0  0  0  0  0  0  0  0
   -3.9180   13.3075  -12.3483 H   0  0  0  0  0  0  0  0  0  0  0  0
   -2.1552   11.5094  -15.6558 H   0  0  0  0  0  0  0  0  0  0  0  0
   -5.7264   11.3779  -19.1914 H   0  0  0  0  0  0  0  0  0  0  0  0
   -4.0141   10.2247  -20.7043 H   0  0  0  0  0  0  0  0  0  0  0  0
    2.9272   10.8440  -13.4698 H   0  0  0  0  0  0  0  0  0  0  0  0
    1.1696   11.7775  -11.8601 H   0  0  0  0  0  0  0  0  0  0  0  0
   -0.0109   14.2999  -11.9439 H   0  0  0  0  0  0  0  0  0  0  0  0
    0.2080   14.8260   -9.5808 H   0  0  0  0  0  0  0  0  0  0  0  0
    2.8073    4.7712   -3.3456 H   0  0  0  0  0  0  0  0  0  0  0  0
  1  2  1  0  0  0  0
  1 81  1  0  0  0  0
  1 82  1  0  0  0  0
  1 83  1  0  0  0  0
  2  3  1  0  0  0  0
  2 79  2  0  0  0  0
  3  4  2  0  0  0  0
  3 84  1  0  0  0  0
  4  5  1  0  0  0  0
  4  6  1  0  0  0  0
  6 78  2  0  0  0  0
  7  9  1  0  0  0  0
  7 12  1  1  0  0  0
  7  8  1  0  0  0  0
  7  6  1  0  0  0  0
  8 85  1  0  0  0  0
  8 86  1  0  0  0  0
  8 87  1  0  0  0  0
  9 10  1  0  0  0  0
  9 88  1  0  0  0  0
 10 11  2  0  0  0  0
 10 89  1  0  0  0  0
 12 13  2  0  0  0  0
 12 14  1  0  0  0  0
 14 15  1  0  0  0  0
 14 90  1  0  0  0  0
 15 16  1  0  0  0  0
 15 91  1  0  0  0  0
 15 92  1  0  0  0  0
 16 17  1  0  0  0  0
 16 93  1  0  0  0  0
 16 94  1  0  0  0  0
 17 18  1  0  0  0  0
 17 95  1  0  0  0  0
 17 96  1  0  0  0  0
 18 19  1  0  0  0  0
 18 97  1  0  0  0  0
 18 98  1  0  0  0  0
 19 20  1  0  0  0  0
 19 99  1  0  0  0  0
 19100  1  0  0  0  0
 20 21  1  0  0  0  0
 20101  1  0  0  0  0
 20102  1  0  0  0  0
 21 22  1  0  0  0  0
 21103  1  0  0  0  0
 22 23  2  0  0  0  0
 22 24  1  0  0  0  0
 24 25  1  0  0  0  0
 24 77  2  0  0  0  0
 25 26  2  0  0  0  0
 25104  1  0  0  0  0
 26 27  1  0  0  0  0
 26105  1  0  0  0  0
 27 28  1  0  0  0  0
 27 76  2  0  0  0  0
 28 29  1  0  0  0  0
 28 70  2  0  0  0  0
 29 30  2  0  0  0  0
 29 75  1  0  0  0  0
 30 31  1  0  0  0  0
 31 32  2  0  0  0  0
 31 74  1  0  0  0  0
 32 33  1  0  0  0  0
 32 41  1  0  0  0  0
 33 34  1  0  0  0  0
 33 39  2  0  0  0  0
 34 35  1  0  0  0  0
 34 36  2  0  0  0  0
 36 37  1  0  0  0  0
 36106  1  0  0  0  0
 37 38  2  0  0  0  0
 37107  1  0  0  0  0
 38 39  1  0  0  0  0
 38108  1  0  0  0  0
 39 40  1  0  0  0  0
 41 42  2  0  0  0  0
 41 45  1  0  0  0  0
 42 43  1  0  0  0  0
 42109  1  0  0  0  0
 43 44  2  0  0  0  0
 43110  1  0  0  0  0
 44 45  1  0  0  0  0
 44 46  1  0  0  0  0
 45111  1  0  0  0  0
 46 47  1  0  0  0  0
 46 55  2  0  0  0  0
 47 48  1  0  0  0  0
 47 53  2  0  0  0  0
 48 49  1  0  0  0  0
 48 50  2  0  0  0  0
 50 51  1  0  0  0  0
 50112  1  0  0  0  0
 51 52  2  0  0  0  0
 51113  1  0  0  0  0
 52 53  1  0  0  0  0
 52114  1  0  0  0  0
 53 54  1  0  0  0  0
 55 56  1  0  0  0  0
 55 73  1  0  0  0  0
 56 57  2  0  0  0  0
 57 58  1  0  0  0  0
 57 72  1  0  0  0  0
 58 59  1  0  0  0  0
 58 67  2  0  0  0  0
 59 60  1  0  0  0  0
 59 65  2  0  0  0  0
 60 61  1  0  0  0  0
 60 62  2  0  0  0  0
 62 63  1  0  0  0  0
 62115  1  0  0  0  0
 63 64  2  0  0  0  0
 63116  1  0  0  0  0
 64 65  1  0  0  0  0
 64117  1  0  0  0  0
 65 66  1  0  0  0  0
 67 68  1  0  0  0  0
 67 71  1  0  0  0  0
 68 69  2  0  0  0  0
 68118  1  0  0  0  0
 69 70  1  0  0  0  0
 69119  1  0  0  0  0
 70 71  1  0  0  0  0
 71120  1  0  0  0  0
 72 73  2  0  0  0  0
 72121  1  0  0  0  0
 73122  1  0  0  0  0
 74 75  2  0  0  0  0
 74123  1  0  0  0  0
 75124  1  0  0  0  0
 76 77  1  0  0  0  0
 76125  1  0  0  0  0
 77126  1  0  0  0  0
 78 79  1  0  0  0  0
 78127  1  0  0  0  0
 79 80  1  0  0  0  0
M  END
$$$$
