1_0_4299
 OpenBabel04152301373D

139149  0  0  0  0  0  0  0  0999 V2000
    1.0159    0.4210   -0.6647 O   0  0  0  0  0  0  0  0  0  0  0  0
    2.0796    0.0566   -0.1657 C   0  0  0  0  0  0  0  0  0  0  0  0
    2.8035    0.9083    0.8724 C   0  0  0  0  0  0  0  0  0  0  0  0
    3.7400    0.2136    1.7995 N   0  0  0  0  0  0  0  0  0  0  0  0
    5.1621    0.6509    1.7449 C   0  0  0  0  0  0  0  0  0  0  0  0
    5.6962    1.4997    2.9132 C   0  0  0  0  0  0  0  0  0  0  0  0
    6.6627    1.1034    3.5777 O   0  0  0  0  0  0  0  0  0  0  0  0
    5.1916    2.7163    3.2462 N   0  0  0  0  0  0  0  0  0  0  0  0
    4.2223    3.5518    2.5818 C   0  0  0  0  0  0  0  0  0  0  0  0
    3.0065    3.8183    3.4318 C   0  0  0  0  0  0  0  0  0  0  0  0
    2.5778    5.1307    3.6731 C   0  0  0  0  0  0  0  0  0  0  0  0
    1.4166    5.3765    4.4121 C   0  0  0  0  0  0  0  0  0  0  0  0
    0.6615    4.3155    4.9078 C   0  0  0  0  0  0  0  0  0  0  0  0
    1.0749    3.0083    4.6790 C   0  0  0  0  0  0  0  0  0  0  0  0
    2.2428    2.7666    3.9560 C   0  0  0  0  0  0  0  0  0  0  0  0
    3.2693   -0.6523    2.7893 C   0  0  0  0  0  0  0  0  0  0  0  0
    3.8933   -0.7920    4.0417 C   0  0  0  0  0  0  0  0  0  0  0  0
    3.3954   -1.6262    5.0554 C   0  0  0  0  0  0  0  0  0  0  0  0
    2.2700   -2.4009    4.8324 C   0  0  0  0  0  0  0  0  0  0  0  0
    1.6365   -2.3170    3.6044 C   0  0  0  0  0  0  0  0  0  0  0  0
    2.1171   -1.4409    2.6185 C   0  0  0  0  0  0  0  0  0  0  0  0
    2.7169   -1.1041   -0.5305 N   0  0  0  0  0  0  0  0  0  0  0  0
    2.1061   -2.0587   -1.4262 C   0  0  0  0  0  0  0  0  0  0  0  0
    2.6754   -1.9665   -2.8371 C   0  0  0  0  0  0  0  0  0  0  0  0
    4.1808   -2.2413   -2.9195 C   0  0  0  0  0  0  0  0  0  0  0  0
    4.6307   -3.5847   -2.3356 C   0  0  0  0  0  0  0  0  0  0  0  0
    3.9307   -4.8134   -2.9179 C   0  0  0  0  0  0  0  0  0  0  0  0
    4.0629   -4.9637   -4.4282 C   0  0  0  0  0  0  0  0  0  0  0  0
    5.4400   -5.1782   -4.8458 N   0  0  0  0  0  0  0  0  0  0  0  0
    5.9506   -6.1558   -5.6630 C   0  0  0  0  0  0  0  0  0  0  0  0
    7.1646   -6.2983   -5.7817 O   0  0  0  0  0  0  0  0  0  0  0  0
    5.0273   -7.0569   -6.3835 C   0  0  0  0  0  0  0  0  0  0  0  0
    5.2647   -8.4333   -6.3620 C   0  0  0  0  0  0  0  0  0  0  0  0
    4.3539   -9.3011   -6.9693 C   0  0  0  0  0  0  0  0  0  0  0  0
    3.1839   -8.8000   -7.5629 C   0  0  0  0  0  0  0  0  0  0  0  0
    2.1671   -9.7011   -8.1642 C   0  0  0  0  0  0  0  0  0  0  0  0
    1.8637   -9.6083   -9.6355 C   0  0  0  0  0  0  0  0  0  0  0  0
    0.9333  -10.2141  -10.3283 N   0  0  0  0  0  0  0  0  0  0  0  0
    1.0567   -9.7351  -11.6266 C   0  0  0  0  0  0  0  0  0  0  0  0
    0.3577  -10.0931  -12.7290 C   0  0  0  0  0  0  0  0  0  0  0  0
    0.6835   -9.4063  -14.0229 C   0  0  0  0  0  0  0  0  0  0  0  0
    1.8767   -9.6548  -14.7129 C   0  0  0  0  0  0  0  0  0  0  0  0
    2.8107  -10.4621  -14.1877 F   0  0  0  0  0  0  0  0  0  0  0  0
    2.1427   -9.0604  -15.9476 C   0  0  0  0  0  0  0  0  0  0  0  0
    1.1969   -8.2221  -16.5349 C   0  0  0  0  0  0  0  0  0  0  0  0
   -0.0007   -7.9662  -15.8707 C   0  0  0  0  0  0  0  0  0  0  0  0
   -0.2431   -8.5442  -14.6239 C   0  0  0  0  0  0  0  0  0  0  0  0
   -1.4089   -8.2685  -14.0198 F   0  0  0  0  0  0  0  0  0  0  0  0
   -0.6756  -11.0941  -12.7409 C   0  0  0  0  0  0  0  0  0  0  0  0
   -1.3940  -11.5741  -13.8221 C   0  0  0  0  0  0  0  0  0  0  0  0
   -2.3275  -12.4995  -13.3491 C   0  0  0  0  0  0  0  0  0  0  0  0
   -2.1482  -12.6411  -11.9828 C   0  0  0  0  0  0  0  0  0  0  0  0
   -1.1371  -11.7672  -11.6210 N   0  0  0  0  0  0  0  0  0  0  0  0
   -2.8529  -13.5078  -11.0745 C   0  0  0  0  0  0  0  0  0  0  0  0
   -3.8987  -14.4165  -11.6519 C   0  0  0  0  0  0  0  0  0  0  0  0
   -5.2663  -14.2139  -11.4321 C   0  0  0  0  0  0  0  0  0  0  0  0
   -5.6874  -13.2251  -10.6291 F   0  0  0  0  0  0  0  0  0  0  0  0
   -6.2274  -15.0442  -12.0115 C   0  0  0  0  0  0  0  0  0  0  0  0
   -5.8349  -16.0813  -12.8563 C   0  0  0  0  0  0  0  0  0  0  0  0
   -4.4800  -16.2931  -13.1004 C   0  0  0  0  0  0  0  0  0  0  0  0
   -3.5278  -15.4756  -12.4917 C   0  0  0  0  0  0  0  0  0  0  0  0
   -2.2341  -15.7177  -12.7524 F   0  0  0  0  0  0  0  0  0  0  0  0
   -2.6222  -13.5826   -9.7416 C   0  0  0  0  0  0  0  0  0  0  0  0
   -1.6804  -12.9040   -8.9779 N   0  0  0  0  0  0  0  0  0  0  0  0
   -1.8553  -13.3132   -7.7448 C   0  0  0  0  0  0  0  0  0  0  0  0
   -1.0869  -12.9461   -6.5024 C   0  0  0  0  0  0  0  0  0  0  0  0
   -1.4601  -13.5371   -5.1900 C   0  0  0  0  0  0  0  0  0  0  0  0
   -1.3091  -14.9077   -4.9446 C   0  0  0  0  0  0  0  0  0  0  0  0
   -0.7917  -15.7089   -5.8877 F   0  0  0  0  0  0  0  0  0  0  0  0
   -1.7413  -15.4912   -3.7522 C   0  0  0  0  0  0  0  0  0  0  0  0
   -2.3046  -14.6980   -2.7550 C   0  0  0  0  0  0  0  0  0  0  0  0
   -2.4333  -13.3260   -2.9611 C   0  0  0  0  0  0  0  0  0  0  0  0
   -2.0256  -12.7611   -4.1710 C   0  0  0  0  0  0  0  0  0  0  0  0
   -2.1913  -11.4406   -4.3365 F   0  0  0  0  0  0  0  0  0  0  0  0
   -0.0615  -12.0773   -6.5968 C   0  0  0  0  0  0  0  0  0  0  0  0
    0.7643  -11.6180   -5.4846 C   0  0  0  0  0  0  0  0  0  0  0  0
    1.6368  -10.7014   -5.9348 C   0  0  0  0  0  0  0  0  0  0  0  0
    1.4632  -10.5418   -7.3801 C   0  0  0  0  0  0  0  0  0  0  0  0
    0.4434  -11.4091   -7.6873 N   0  0  0  0  0  0  0  0  0  0  0  0
   -2.9627  -14.2673   -7.5834 C   0  0  0  0  0  0  0  0  0  0  0  0
   -3.3618  -14.4345   -8.8358 C   0  0  0  0  0  0  0  0  0  0  0  0
    2.1216   -8.7569  -11.6192 C   0  0  0  0  0  0  0  0  0  0  0  0
    2.6996   -8.6914  -10.4288 C   0  0  0  0  0  0  0  0  0  0  0  0
    2.9758   -7.4120   -7.6005 C   0  0  0  0  0  0  0  0  0  0  0  0
    3.9199   -6.5430   -7.0634 C   0  0  0  0  0  0  0  0  0  0  0  0
    2.0571    1.3878    1.4706 H   0  0  0  0  0  0  0  0  0  0  0  0
    3.4239    1.5664    0.3006 H   0  0  0  0  0  0  0  0  0  0  0  0
    5.2856    1.2250    0.8504 H   0  0  0  0  0  0  0  0  0  0  0  0
    5.7259   -0.2574    1.7912 H   0  0  0  0  0  0  0  0  0  0  0  0
    5.5485    3.0913    4.0836 H   0  0  0  0  0  0  0  0  0  0  0  0
    3.9107    3.0654    1.6811 H   0  0  0  0  0  0  0  0  0  0  0  0
    4.6897    4.4931    2.3809 H   0  0  0  0  0  0  0  0  0  0  0  0
    3.1245    5.9233    3.3017 H   0  0  0  0  0  0  0  0  0  0  0  0
    1.1175    6.3478    4.5912 H   0  0  0  0  0  0  0  0  0  0  0  0
   -0.2015    4.4996    5.4429 H   0  0  0  0  0  0  0  0  0  0  0  0
    0.5191    2.2187    5.0432 H   0  0  0  0  0  0  0  0  0  0  0  0
    2.5509    1.7935    3.8039 H   0  0  0  0  0  0  0  0  0  0  0  0
    4.7567   -0.2569    4.2241 H   0  0  0  0  0  0  0  0  0  0  0  0
    3.8705   -1.6620    5.9708 H   0  0  0  0  0  0  0  0  0  0  0  0
    1.9101   -3.0291    5.5678 H   0  0  0  0  0  0  0  0  0  0  0  0
    0.8074   -2.9010    3.4129 H   0  0  0  0  0  0  0  0  0  0  0  0
    1.6013   -1.3722    1.7273 H   0  0  0  0  0  0  0  0  0  0  0  0
    3.6145   -1.2906   -0.1717 H   0  0  0  0  0  0  0  0  0  0  0  0
    1.0536   -1.8702   -1.4658 H   0  0  0  0  0  0  0  0  0  0  0  0
    2.3109   -3.0399   -1.0517 H   0  0  0  0  0  0  0  0  0  0  0  0
    2.4922   -0.9806   -3.2104 H   0  0  0  0  0  0  0  0  0  0  0  0
    2.1898   -2.7229   -3.4176 H   0  0  0  0  0  0  0  0  0  0  0  0
    4.6890   -1.4630   -2.3896 H   0  0  0  0  0  0  0  0  0  0  0  0
    4.4203   -2.2749   -3.9618 H   0  0  0  0  0  0  0  0  0  0  0  0
    4.4458   -3.5665   -1.2818 H   0  0  0  0  0  0  0  0  0  0  0  0
    5.6662   -3.6859   -2.5855 H   0  0  0  0  0  0  0  0  0  0  0  0
    2.8897   -4.7487   -2.6790 H   0  0  0  0  0  0  0  0  0  0  0  0
    4.4088   -5.6675   -2.4856 H   0  0  0  0  0  0  0  0  0  0  0  0
    3.6968   -4.0734   -4.8955 H   0  0  0  0  0  0  0  0  0  0  0  0
    3.4956   -5.8222   -4.7215 H   0  0  0  0  0  0  0  0  0  0  0  0
    6.0957   -4.5336   -4.4939 H   0  0  0  0  0  0  0  0  0  0  0  0
    6.1084   -8.8071   -5.9000 H   0  0  0  0  0  0  0  0  0  0  0  0
    4.5418  -10.3158   -6.9818 H   0  0  0  0  0  0  0  0  0  0  0  0
    3.0393   -9.2416  -16.4253 H   0  0  0  0  0  0  0  0  0  0  0  0
    1.3824   -7.7939  -17.4554 H   0  0  0  0  0  0  0  0  0  0  0  0
   -0.7080   -7.3497  -16.3004 H   0  0  0  0  0  0  0  0  0  0  0  0
   -1.2628  -11.2964  -14.8073 H   0  0  0  0  0  0  0  0  0  0  0  0
   -3.0309  -12.9935  -13.9203 H   0  0  0  0  0  0  0  0  0  0  0  0
   -0.7971  -11.6427  -10.7055 H   0  0  0  0  0  0  0  0  0  0  0  0
   -7.2286  -14.8902  -11.8144 H   0  0  0  0  0  0  0  0  0  0  0  0
   -6.5434  -16.6880  -13.2979 H   0  0  0  0  0  0  0  0  0  0  0  0
   -4.1811  -17.0537  -13.7306 H   0  0  0  0  0  0  0  0  0  0  0  0
   -1.6437  -16.5086   -3.6097 H   0  0  0  0  0  0  0  0  0  0  0  0
   -2.6240  -15.1233   -1.8706 H   0  0  0  0  0  0  0  0  0  0  0  0
   -2.8298  -12.7276   -2.2197 H   0  0  0  0  0  0  0  0  0  0  0  0
    0.6898  -11.9451   -4.5086 H   0  0  0  0  0  0  0  0  0  0  0  0
    2.3207  -10.1909   -5.3545 H   0  0  0  0  0  0  0  0  0  0  0  0
    0.1055  -11.5401   -8.6027 H   0  0  0  0  0  0  0  0  0  0  0  0
   -3.3325  -14.6950   -6.7200 H   0  0  0  0  0  0  0  0  0  0  0  0
   -4.1049  -15.0885   -9.1277 H   0  0  0  0  0  0  0  0  0  0  0  0
    2.3953   -8.1852  -12.4336 H   0  0  0  0  0  0  0  0  0  0  0  0
    3.5215   -8.1412  -10.1342 H   0  0  0  0  0  0  0  0  0  0  0  0
    2.1167   -7.0340   -8.0295 H   0  0  0  0  0  0  0  0  0  0  0  0
    3.8030   -5.5229   -7.1666 H   0  0  0  0  0  0  0  0  0  0  0  0
  1  2  2  0  0  0  0
  2  3  1  0  0  0  0
  2 22  1  0  0  0  0
  3  4  1  0  0  0  0
  3 86  1  0  0  0  0
  3 87  1  0  0  0  0
  4  5  1  0  0  0  0
  4 16  1  0  0  0  0
  5  6  1  0  0  0  0
  5 88  1  0  0  0  0
  5 89  1  0  0  0  0
  6  7  2  0  0  0  0
  6  8  1  0  0  0  0
  8  9  1  0  0  0  0
  8 90  1  0  0  0  0
  9 10  1  0  0  0  0
  9 91  1  0  0  0  0
  9 92  1  0  0  0  0
 10 11  1  0  0  0  0
 10 15  2  0  0  0  0
 11 12  2  0  0  0  0
 11 93  1  0  0  0  0
 12 13  1  0  0  0  0
 12 94  1  0  0  0  0
 13 14  2  0  0  0  0
 13 95  1  0  0  0  0
 14 15  1  0  0  0  0
 14 96  1  0  0  0  0
 15 97  1  0  0  0  0
 16 17  1  0  0  0  0
 16 21  2  0  0  0  0
 17 18  2  0  0  0  0
 17 98  1  0  0  0  0
 18 19  1  0  0  0  0
 18 99  1  0  0  0  0
 19 20  2  0  0  0  0
 19100  1  0  0  0  0
 20 21  1  0  0  0  0
 20101  1  0  0  0  0
 21102  1  0  0  0  0
 22 23  1  0  0  0  0
 22103  1  0  0  0  0
 23 24  1  0  0  0  0
 23104  1  0  0  0  0
 23105  1  0  0  0  0
 24 25  1  0  0  0  0
 24106  1  0  0  0  0
 24107  1  0  0  0  0
 25 26  1  0  0  0  0
 25108  1  0  0  0  0
 25109  1  0  0  0  0
 26 27  1  0  0  0  0
 26110  1  0  0  0  0
 26111  1  0  0  0  0
 27 28  1  0  0  0  0
 27112  1  0  0  0  0
 27113  1  0  0  0  0
 28 29  1  0  0  0  0
 28114  1  0  0  0  0
 28115  1  0  0  0  0
 29 30  1  0  0  0  0
 29116  1  0  0  0  0
 30 31  2  0  0  0  0
 30 32  1  0  0  0  0
 32 33  1  0  0  0  0
 32 85  2  0  0  0  0
 33 34  2  0  0  0  0
 33117  1  0  0  0  0
 34 35  1  0  0  0  0
 34118  1  0  0  0  0
 35 36  1  0  0  0  0
 35 84  2  0  0  0  0
 36 37  1  0  0  0  0
 36 78  2  0  0  0  0
 37 38  2  0  0  0  0
 37 83  1  0  0  0  0
 38 39  1  0  0  0  0
 39 40  2  0  0  0  0
 39 82  1  0  0  0  0
 40 41  1  0  0  0  0
 40 49  1  0  0  0  0
 41 42  1  0  0  0  0
 41 47  2  0  0  0  0
 42 43  1  0  0  0  0
 42 44  2  0  0  0  0
 44 45  1  0  0  0  0
 44119  1  0  0  0  0
 45 46  2  0  0  0  0
 45120  1  0  0  0  0
 46 47  1  0  0  0  0
 46121  1  0  0  0  0
 47 48  1  0  0  0  0
 49 50  2  0  0  0  0
 49 53  1  0  0  0  0
 50 51  1  0  0  0  0
 50122  1  0  0  0  0
 51 52  2  0  0  0  0
 51123  1  0  0  0  0
 52 53  1  0  0  0  0
 52 54  1  0  0  0  0
 53124  1  0  0  0  0
 54 55  1  0  0  0  0
 54 63  2  0  0  0  0
 55 56  1  0  0  0  0
 55 61  2  0  0  0  0
 56 57  1  0  0  0  0
 56 58  2  0  0  0  0
 58 59  1  0  0  0  0
 58125  1  0  0  0  0
 59 60  2  0  0  0  0
 59126  1  0  0  0  0
 60 61  1  0  0  0  0
 60127  1  0  0  0  0
 61 62  1  0  0  0  0
 63 64  1  0  0  0  0
 63 81  1  0  0  0  0
 64 65  2  0  0  0  0
 65 66  1  0  0  0  0
 65 80  1  0  0  0  0
 66 67  1  0  0  0  0
 66 75  2  0  0  0  0
 67 68  1  0  0  0  0
 67 73  2  0  0  0  0
 68 69  1  0  0  0  0
 68 70  2  0  0  0  0
 70 71  1  0  0  0  0
 70128  1  0  0  0  0
 71 72  2  0  0  0  0
 71129  1  0  0  0  0
 72 73  1  0  0  0  0
 72130  1  0  0  0  0
 73 74  1  0  0  0  0
 75 76  1  0  0  0  0
 75 79  1  0  0  0  0
 76 77  2  0  0  0  0
 76131  1  0  0  0  0
 77 78  1  0  0  0  0
 77132  1  0  0  0  0
 78 79  1  0  0  0  0
 79133  1  0  0  0  0
 80 81  2  0  0  0  0
 80134  1  0  0  0  0
 81135  1  0  0  0  0
 82 83  2  0  0  0  0
 82136  1  0  0  0  0
 83137  1  0  0  0  0
 84 85  1  0  0  0  0
 84138  1  0  0  0  0
 85139  1  0  0  0  0
M  END
$$$$
