1_0_4045
 OpenBabel04152301373D

138148  0  0  0  0  0  0  0  0999 V2000
    1.1147   -0.1064   -0.1473 C   0  0  0  0  0  0  0  0  0  0  0  0
    0.6535   -0.6024    1.2173 C   0  0  0  0  0  0  0  0  0  0  0  0
    1.0235    0.3417    2.3686 C   0  0  0  0  0  0  0  0  0  0  0  0
    0.4666    1.7348    2.2340 C   0  0  0  0  0  0  0  0  0  0  0  0
   -0.8579    1.9523    1.9417 C   0  0  0  0  0  0  0  0  0  0  0  0
   -1.2237    3.2539    1.6999 C   0  0  0  0  0  0  0  0  0  0  0  0
   -2.4473    3.6374    1.2238 O   0  0  0  0  0  0  0  0  0  0  0  0
   -3.3186    2.6237    0.7483 C   0  0  0  0  0  0  0  0  0  0  0  0
   -2.8438    1.7399   -0.4171 C   0  0  0  0  0  0  0  0  0  0  0  0
   -2.7442    0.5172   -0.2962 O   0  0  0  0  0  0  0  0  0  0  0  0
   -2.5469    2.3072   -1.6183 N   0  0  0  0  0  0  0  0  0  0  0  0
   -2.5576    3.7111   -1.9727 C   0  0  0  0  0  0  0  0  0  0  0  0
   -1.1525    4.2152   -2.2949 C   0  0  0  0  0  0  0  0  0  0  0  0
   -0.5054    3.5465   -3.5156 C   0  0  0  0  0  0  0  0  0  0  0  0
   -1.3229    3.6206   -4.8101 C   0  0  0  0  0  0  0  0  0  0  0  0
   -1.7233    5.0330   -5.2385 C   0  0  0  0  0  0  0  0  0  0  0  0
   -0.5489    5.9759   -5.4681 C   0  0  0  0  0  0  0  0  0  0  0  0
    0.2894    5.5460   -6.5766 N   0  0  0  0  0  0  0  0  0  0  0  0
    0.6686    6.2405   -7.6983 C   0  0  0  0  0  0  0  0  0  0  0  0
    1.2089    5.6598   -8.6340 O   0  0  0  0  0  0  0  0  0  0  0  0
    0.4006    7.6915   -7.7841 C   0  0  0  0  0  0  0  0  0  0  0  0
   -0.1119    8.2163   -8.9722 C   0  0  0  0  0  0  0  0  0  0  0  0
   -0.4395    9.5713   -9.0421 C   0  0  0  0  0  0  0  0  0  0  0  0
   -0.3078   10.3947   -7.9110 C   0  0  0  0  0  0  0  0  0  0  0  0
   -0.7366   11.8167   -7.9412 C   0  0  0  0  0  0  0  0  0  0  0  0
    0.2636   12.9161   -7.7107 C   0  0  0  0  0  0  0  0  0  0  0  0
    0.0701   14.2093   -7.6476 N   0  0  0  0  0  0  0  0  0  0  0  0
    1.3152   14.7653   -7.3818 C   0  0  0  0  0  0  0  0  0  0  0  0
    1.6578   16.0727   -7.2943 C   0  0  0  0  0  0  0  0  0  0  0  0
    3.0972   16.3973   -7.0077 C   0  0  0  0  0  0  0  0  0  0  0  0
    4.1170   16.1371   -7.9338 C   0  0  0  0  0  0  0  0  0  0  0  0
    3.8385   15.5406   -9.1031 F   0  0  0  0  0  0  0  0  0  0  0  0
    5.4504   16.4480   -7.6608 C   0  0  0  0  0  0  0  0  0  0  0  0
    5.7881   17.0701   -6.4609 C   0  0  0  0  0  0  0  0  0  0  0  0
    4.7892   17.3615   -5.5347 C   0  0  0  0  0  0  0  0  0  0  0  0
    3.4645   17.0140   -5.8044 C   0  0  0  0  0  0  0  0  0  0  0  0
    2.5403   17.3010   -4.8752 F   0  0  0  0  0  0  0  0  0  0  0  0
    0.7293   17.1622   -7.4494 C   0  0  0  0  0  0  0  0  0  0  0  0
    0.9866   18.5217   -7.4255 C   0  0  0  0  0  0  0  0  0  0  0  0
   -0.2313   19.1987   -7.5347 C   0  0  0  0  0  0  0  0  0  0  0  0
   -1.2387   18.2635   -7.7083 C   0  0  0  0  0  0  0  0  0  0  0  0
   -0.6364   17.0173   -7.6445 N   0  0  0  0  0  0  0  0  0  0  0  0
   -2.6465   18.4924   -7.9186 C   0  0  0  0  0  0  0  0  0  0  0  0
   -3.1193   19.9167   -8.0022 C   0  0  0  0  0  0  0  0  0  0  0  0
   -3.9284   20.4962   -7.0166 C   0  0  0  0  0  0  0  0  0  0  0  0
   -4.3589   19.7686   -5.9747 F   0  0  0  0  0  0  0  0  0  0  0  0
   -4.3429   21.8269   -7.1021 C   0  0  0  0  0  0  0  0  0  0  0  0
   -3.9182   22.6224   -8.1647 C   0  0  0  0  0  0  0  0  0  0  0  0
   -3.0955   22.0746   -9.1457 C   0  0  0  0  0  0  0  0  0  0  0  0
   -2.7173   20.7340   -9.0679 C   0  0  0  0  0  0  0  0  0  0  0  0
   -1.9327   20.2479  -10.0418 F   0  0  0  0  0  0  0  0  0  0  0  0
   -3.5717   17.5152   -8.0834 C   0  0  0  0  0  0  0  0  0  0  0  0
   -3.3938   16.1372   -8.1022 N   0  0  0  0  0  0  0  0  0  0  0  0
   -4.5860   15.6229   -8.2845 C   0  0  0  0  0  0  0  0  0  0  0  0
   -4.9865   14.1794   -8.4255 C   0  0  0  0  0  0  0  0  0  0  0  0
   -6.4087   13.8040   -8.6400 C   0  0  0  0  0  0  0  0  0  0  0  0
   -7.0810   14.1504   -9.8182 C   0  0  0  0  0  0  0  0  0  0  0  0
   -6.4457   14.8330  -10.7823 F   0  0  0  0  0  0  0  0  0  0  0  0
   -8.4295   13.8440  -10.0097 C   0  0  0  0  0  0  0  0  0  0  0  0
   -9.1292   13.1442   -9.0289 C   0  0  0  0  0  0  0  0  0  0  0  0
   -8.4755   12.7650   -7.8586 C   0  0  0  0  0  0  0  0  0  0  0  0
   -7.1361   13.1071   -7.6669 C   0  0  0  0  0  0  0  0  0  0  0  0
   -6.5501   12.7357   -6.5190 F   0  0  0  0  0  0  0  0  0  0  0  0
   -4.0373   13.2260   -8.3628 C   0  0  0  0  0  0  0  0  0  0  0  0
   -4.2734   11.7912   -8.4844 C   0  0  0  0  0  0  0  0  0  0  0  0
   -3.1125   11.1399   -8.3132 C   0  0  0  0  0  0  0  0  0  0  0  0
   -2.0381   12.1162   -8.1210 C   0  0  0  0  0  0  0  0  0  0  0  0
   -2.6812   13.3282   -8.1647 N   0  0  0  0  0  0  0  0  0  0  0  0
   -5.6627   16.6198   -8.3637 C   0  0  0  0  0  0  0  0  0  0  0  0
   -4.9850   17.7557   -8.2845 C   0  0  0  0  0  0  0  0  0  0  0  0
    2.2446   13.6674   -7.2320 C   0  0  0  0  0  0  0  0  0  0  0  0
    1.6615   12.5085   -7.4982 C   0  0  0  0  0  0  0  0  0  0  0  0
    0.2341    9.8572   -6.7341 C   0  0  0  0  0  0  0  0  0  0  0  0
    0.6447    8.5290   -6.6922 C   0  0  0  0  0  0  0  0  0  0  0  0
   -0.3882    4.2909    1.8940 N   0  0  0  0  0  0  0  0  0  0  0  0
    0.8659    4.0039    2.2667 C   0  0  0  0  0  0  0  0  0  0  0  0
    1.6887    5.0735    2.6196 N   0  0  0  0  0  0  0  0  0  0  0  0
    3.0256    5.0311    3.0278 C   0  0  0  0  0  0  0  0  0  0  0  0
    3.4171    5.6597    4.2160 C   0  0  0  0  0  0  0  0  0  0  0  0
    4.7181    5.5065    4.7128 C   0  0  0  0  0  0  0  0  0  0  0  0
    5.6514    4.7336    4.0150 C   0  0  0  0  0  0  0  0  0  0  0  0
    6.9755    4.5528    4.5307 C   0  0  0  0  0  0  0  0  0  0  0  0
    8.0498    4.3999    4.9476 N   0  0  0  0  0  0  0  0  0  0  0  0
    5.2784    4.1182    2.8195 C   0  0  0  0  0  0  0  0  0  0  0  0
    3.9722    4.2565    2.3430 C   0  0  0  0  0  0  0  0  0  0  0  0
    1.3279    2.7509    2.3953 N   0  0  0  0  0  0  0  0  0  0  0  0
    0.8245   -0.8101   -0.8993 H   0  0  0  0  0  0  0  0  0  0  0  0
    2.1797   -0.0026   -0.1478 H   0  0  0  0  0  0  0  0  0  0  0  0
    0.6638    0.8419   -0.3532 H   0  0  0  0  0  0  0  0  0  0  0  0
    1.1050   -1.5548    1.4018 H   0  0  0  0  0  0  0  0  0  0  0  0
   -0.4146   -0.6587    1.1873 H   0  0  0  0  0  0  0  0  0  0  0  0
    2.0903    0.4107    2.4152 H   0  0  0  0  0  0  0  0  0  0  0  0
    0.5935   -0.0748    3.2554 H   0  0  0  0  0  0  0  0  0  0  0  0
   -1.5410    1.1796    1.9057 H   0  0  0  0  0  0  0  0  0  0  0  0
   -4.2214    3.1043    0.4337 H   0  0  0  0  0  0  0  0  0  0  0  0
   -3.4096    1.9469    1.5720 H   0  0  0  0  0  0  0  0  0  0  0  0
   -2.2928    1.6842   -2.3370 H   0  0  0  0  0  0  0  0  0  0  0  0
   -2.9498    4.2744   -1.1519 H   0  0  0  0  0  0  0  0  0  0  0  0
   -3.1673    3.8340   -2.8433 H   0  0  0  0  0  0  0  0  0  0  0  0
   -0.5288    4.0351   -1.4444 H   0  0  0  0  0  0  0  0  0  0  0  0
   -1.2465    5.2550   -2.5293 H   0  0  0  0  0  0  0  0  0  0  0  0
   -0.3473    2.5142   -3.2826 H   0  0  0  0  0  0  0  0  0  0  0  0
    0.3994    4.0854   -3.7046 H   0  0  0  0  0  0  0  0  0  0  0  0
   -2.2169    3.0491   -4.6719 H   0  0  0  0  0  0  0  0  0  0  0  0
   -0.6922    3.2391   -5.5857 H   0  0  0  0  0  0  0  0  0  0  0  0
   -2.3444    5.4514   -4.4742 H   0  0  0  0  0  0  0  0  0  0  0  0
   -2.2268    4.9368   -6.1777 H   0  0  0  0  0  0  0  0  0  0  0  0
    0.0454    6.0097   -4.5790 H   0  0  0  0  0  0  0  0  0  0  0  0
   -0.9433    6.9411   -5.7083 H   0  0  0  0  0  0  0  0  0  0  0  0
    0.6338    4.6259   -6.5133 H   0  0  0  0  0  0  0  0  0  0  0  0
   -0.2476    7.6062   -9.7934 H   0  0  0  0  0  0  0  0  0  0  0  0
   -0.7807    9.9711   -9.9303 H   0  0  0  0  0  0  0  0  0  0  0  0
    6.1854   16.2171   -8.3474 H   0  0  0  0  0  0  0  0  0  0  0  0
    6.7707   17.3132   -6.2597 H   0  0  0  0  0  0  0  0  0  0  0  0
    5.0286   17.8343   -4.6492 H   0  0  0  0  0  0  0  0  0  0  0  0
    1.9171   18.9600   -7.3415 H   0  0  0  0  0  0  0  0  0  0  0  0
   -0.3586   20.2220   -7.4931 H   0  0  0  0  0  0  0  0  0  0  0  0
   -1.1077   16.1568   -7.7256 H   0  0  0  0  0  0  0  0  0  0  0  0
   -4.9638   22.2214   -6.3783 H   0  0  0  0  0  0  0  0  0  0  0  0
   -4.2112   23.6101   -8.2241 H   0  0  0  0  0  0  0  0  0  0  0  0
   -2.7660   22.6597   -9.9294 H   0  0  0  0  0  0  0  0  0  0  0  0
   -8.9075   14.1355  -10.8766 H   0  0  0  0  0  0  0  0  0  0  0  0
  -10.1242   12.9086   -9.1683 H   0  0  0  0  0  0  0  0  0  0  0  0
   -8.9812   12.2317   -7.1341 H   0  0  0  0  0  0  0  0  0  0  0  0
   -5.1865   11.3483   -8.6719 H   0  0  0  0  0  0  0  0  0  0  0  0
   -2.9956   10.1145   -8.3165 H   0  0  0  0  0  0  0  0  0  0  0  0
   -2.2149   14.1894   -8.0637 H   0  0  0  0  0  0  0  0  0  0  0  0
   -6.6801   16.4736   -8.4566 H   0  0  0  0  0  0  0  0  0  0  0  0
   -5.4107   18.6930   -8.3570 H   0  0  0  0  0  0  0  0  0  0  0  0
    3.2328   13.7732   -6.9541 H   0  0  0  0  0  0  0  0  0  0  0  0
    2.0786   11.5657   -7.5445 H   0  0  0  0  0  0  0  0  0  0  0  0
    0.3286   10.4504   -5.8949 H   0  0  0  0  0  0  0  0  0  0  0  0
    1.1282    8.1629   -5.8572 H   0  0  0  0  0  0  0  0  0  0  0  0
    1.2782    5.9673    2.5760 H   0  0  0  0  0  0  0  0  0  0  0  0
    2.7395    6.2426    4.7318 H   0  0  0  0  0  0  0  0  0  0  0  0
    4.9885    5.9656    5.5966 H   0  0  0  0  0  0  0  0  0  0  0  0
    5.9662    3.5618    2.2881 H   0  0  0  0  0  0  0  0  0  0  0  0
    3.6990    3.7790    1.4698 H   0  0  0  0  0  0  0  0  0  0  0  0
  1  2  1  0  0  0  0
  1 87  1  0  0  0  0
  1 88  1  0  0  0  0
  1 89  1  0  0  0  0
  2  3  1  0  0  0  0
  2 90  1  0  0  0  0
  2 91  1  0  0  0  0
  3  4  1  0  0  0  0
  3 92  1  0  0  0  0
  3 93  1  0  0  0  0
  4  5  1  0  0  0  0
  4 86  2  0  0  0  0
  5  6  2  0  0  0  0
  5 94  1  0  0  0  0
  6  7  1  0  0  0  0
  6 75  1  0  0  0  0
  7  8  1  0  0  0  0
  8  9  1  0  0  0  0
  8 95  1  0  0  0  0
  8 96  1  0  0  0  0
  9 10  2  0  0  0  0
  9 11  1  0  0  0  0
 11 12  1  0  0  0  0
 11 97  1  0  0  0  0
 12 13  1  0  0  0  0
 12 98  1  0  0  0  0
 12 99  1  0  0  0  0
 13 14  1  0  0  0  0
 13100  1  0  0  0  0
 13101  1  0  0  0  0
 14 15  1  0  0  0  0
 14102  1  0  0  0  0
 14103  1  0  0  0  0
 15 16  1  0  0  0  0
 15104  1  0  0  0  0
 15105  1  0  0  0  0
 16 17  1  0  0  0  0
 16106  1  0  0  0  0
 16107  1  0  0  0  0
 17 18  1  0  0  0  0
 17108  1  0  0  0  0
 17109  1  0  0  0  0
 18 19  1  0  0  0  0
 18110  1  0  0  0  0
 19 20  2  0  0  0  0
 19 21  1  0  0  0  0
 21 22  1  0  0  0  0
 21 74  2  0  0  0  0
 22 23  2  0  0  0  0
 22111  1  0  0  0  0
 23 24  1  0  0  0  0
 23112  1  0  0  0  0
 24 25  1  0  0  0  0
 24 73  2  0  0  0  0
 25 26  1  0  0  0  0
 25 67  2  0  0  0  0
 26 27  2  0  0  0  0
 26 72  1  0  0  0  0
 27 28  1  0  0  0  0
 28 29  2  0  0  0  0
 28 71  1  0  0  0  0
 29 30  1  0  0  0  0
 29 38  1  0  0  0  0
 30 31  1  0  0  0  0
 30 36  2  0  0  0  0
 31 32  1  0  0  0  0
 31 33  2  0  0  0  0
 33 34  1  0  0  0  0
 33113  1  0  0  0  0
 34 35  2  0  0  0  0
 34114  1  0  0  0  0
 35 36  1  0  0  0  0
 35115  1  0  0  0  0
 36 37  1  0  0  0  0
 38 39  2  0  0  0  0
 38 42  1  0  0  0  0
 39 40  1  0  0  0  0
 39116  1  0  0  0  0
 40 41  2  0  0  0  0
 40117  1  0  0  0  0
 41 42  1  0  0  0  0
 41 43  1  0  0  0  0
 42118  1  0  0  0  0
 43 44  1  0  0  0  0
 43 52  2  0  0  0  0
 44 45  1  0  0  0  0
 44 50  2  0  0  0  0
 45 46  1  0  0  0  0
 45 47  2  0  0  0  0
 47 48  1  0  0  0  0
 47119  1  0  0  0  0
 48 49  2  0  0  0  0
 48120  1  0  0  0  0
 49 50  1  0  0  0  0
 49121  1  0  0  0  0
 50 51  1  0  0  0  0
 52 53  1  0  0  0  0
 52 70  1  0  0  0  0
 53 54  2  0  0  0  0
 54 55  1  0  0  0  0
 54 69  1  0  0  0  0
 55 56  1  0  0  0  0
 55 64  2  0  0  0  0
 56 57  1  0  0  0  0
 56 62  2  0  0  0  0
 57 58  1  0  0  0  0
 57 59  2  0  0  0  0
 59 60  1  0  0  0  0
 59122  1  0  0  0  0
 60 61  2  0  0  0  0
 60123  1  0  0  0  0
 61 62  1  0  0  0  0
 61124  1  0  0  0  0
 62 63  1  0  0  0  0
 64 65  1  0  0  0  0
 64 68  1  0  0  0  0
 65 66  2  0  0  0  0
 65125  1  0  0  0  0
 66 67  1  0  0  0  0
 66126  1  0  0  0  0
 67 68  1  0  0  0  0
 68127  1  0  0  0  0
 69 70  2  0  0  0  0
 69128  1  0  0  0  0
 70129  1  0  0  0  0
 71 72  2  0  0  0  0
 71130  1  0  0  0  0
 72131  1  0  0  0  0
 73 74  1  0  0  0  0
 73132  1  0  0  0  0
 74133  1  0  0  0  0
 75 76  2  0  0  0  0
 76 77  1  0  0  0  0
 76 86  1  0  0  0  0
 77 78  1  0  0  0  0
 77134  1  0  0  0  0
 78 79  1  0  0  0  0
 78 85  2  0  0  0  0
 79 80  2  0  0  0  0
 79135  1  0  0  0  0
 80 81  1  0  0  0  0
 80136  1  0  0  0  0
 81 82  1  0  0  0  0
 81 84  2  0  0  0  0
 82 83  3  0  0  0  0
 84 85  1  0  0  0  0
 84137  1  0  0  0  0
 85138  1  0  0  0  0
M  END
$$$$
