1_0_7831
 OpenBabel04152301363D

131141  0  0  1  0  0  0  0  0999 V2000
    0.9493    0.1346    0.0286 N   0  0  0  0  0  0  0  0  0  0  0  0
    0.1663    1.2565   -0.1010 C   0  0  0  0  0  0  0  0  0  0  0  0
   -0.9950    1.0970   -0.4609 O   0  0  0  0  0  0  0  0  0  0  0  0
    0.9042    2.6010    0.1547 C   0  0  2  0  0  0  0  0  0  0  0  0
    1.4927    2.6748    1.5720 C   0  0  0  0  0  0  0  0  0  0  0  0
    2.3392    3.9361    1.7422 C   0  0  0  0  0  0  0  0  0  0  0  0
    1.5192    5.1809    1.4132 C   0  0  0  0  0  0  0  0  0  0  0  0
    0.9262    5.1034    0.0037 C   0  0  0  0  0  0  0  0  0  0  0  0
    0.1903    3.8534   -0.1712 N   0  0  0  0  0  0  0  0  0  0  0  0
   -1.1885    3.9439   -0.1854 C   0  0  0  0  0  0  0  0  0  0  0  0
   -1.8473    4.5449   -1.2680 C   0  0  0  0  0  0  0  0  0  0  0  0
   -3.1939    4.6185   -1.4019 N   0  0  0  0  0  0  0  0  0  0  0  0
   -3.8827    4.0180   -0.4040 C   0  0  0  0  0  0  0  0  0  0  0  0
   -3.2588    3.4290    0.6898 C   0  0  0  0  0  0  0  0  0  0  0  0
   -4.1220    2.7492    1.7006 C   0  0  0  0  0  0  0  0  0  0  0  0
   -5.3486    2.7801    1.5669 O   0  0  0  0  0  0  0  0  0  0  0  0
   -3.6300    2.0673    2.7887 N   0  0  0  0  0  0  0  0  0  0  0  0
   -2.2760    1.8931    3.2720 C   0  0  0  0  0  0  0  0  0  0  0  0
   -2.0577    2.6712    4.5675 C   0  0  0  0  0  0  0  0  0  0  0  0
   -2.7208    2.0215    5.7879 C   0  0  0  0  0  0  0  0  0  0  0  0
   -2.2812    0.5792    6.0698 C   0  0  0  0  0  0  0  0  0  0  0  0
   -0.7674    0.3697    6.1615 C   0  0  0  0  0  0  0  0  0  0  0  0
   -0.0833    1.1916    7.2480 C   0  0  0  0  0  0  0  0  0  0  0  0
   -0.5441    0.8240    8.5778 N   0  0  0  0  0  0  0  0  0  0  0  0
    0.1829    0.4400    9.6727 C   0  0  0  0  0  0  0  0  0  0  0  0
   -0.3846   -0.0340   10.6581 O   0  0  0  0  0  0  0  0  0  0  0  0
    1.6528    0.5767    9.6692 C   0  0  0  0  0  0  0  0  0  0  0  0
    2.4315   -0.4760   10.1562 C   0  0  0  0  0  0  0  0  0  0  0  0
    3.8235   -0.3803   10.1213 C   0  0  0  0  0  0  0  0  0  0  0  0
    4.4433    0.7503    9.5641 C   0  0  0  0  0  0  0  0  0  0  0  0
    5.9210    0.8422    9.4593 C   0  0  0  0  0  0  0  0  0  0  0  0
    6.6694    1.8995   10.2223 C   0  0  0  0  0  0  0  0  0  0  0  0
    7.9480    2.1794   10.2090 N   0  0  0  0  0  0  0  0  0  0  0  0
    8.1052    3.2683   11.0571 C   0  0  0  0  0  0  0  0  0  0  0  0
    9.2475    3.8944   11.4278 C   0  0  0  0  0  0  0  0  0  0  0  0
    9.1264    5.0579   12.3693 C   0  0  0  0  0  0  0  0  0  0  0  0
    8.7629    4.8887   13.7121 C   0  0  0  0  0  0  0  0  0  0  0  0
    8.4660    3.6696   14.1875 F   0  0  0  0  0  0  0  0  0  0  0  0
    8.6603    5.9742   14.5839 C   0  0  0  0  0  0  0  0  0  0  0  0
    8.9564    7.2589   14.1330 C   0  0  0  0  0  0  0  0  0  0  0  0
    9.3396    7.4496   12.8070 C   0  0  0  0  0  0  0  0  0  0  0  0
    9.4109    6.3597   11.9376 C   0  0  0  0  0  0  0  0  0  0  0  0
    9.7713    6.5930   10.6666 F   0  0  0  0  0  0  0  0  0  0  0  0
   10.5609    3.5141   10.9777 C   0  0  0  0  0  0  0  0  0  0  0  0
   11.7851    4.0459   11.3439 C   0  0  0  0  0  0  0  0  0  0  0  0
   12.7820    3.3930   10.6117 C   0  0  0  0  0  0  0  0  0  0  0  0
   12.1835    2.4196    9.8282 C   0  0  0  0  0  0  0  0  0  0  0  0
   10.8205    2.5076   10.0598 N   0  0  0  0  0  0  0  0  0  0  0  0
   12.8089    1.4794    8.9333 C   0  0  0  0  0  0  0  0  0  0  0  0
   14.3045    1.5147    8.8124 C   0  0  0  0  0  0  0  0  0  0  0  0
   14.9436    1.9871    7.6594 C   0  0  0  0  0  0  0  0  0  0  0  0
   14.2255    2.3807    6.5966 F   0  0  0  0  0  0  0  0  0  0  0  0
   16.3356    2.0299    7.5637 C   0  0  0  0  0  0  0  0  0  0  0  0
   17.1205    1.6274    8.6429 C   0  0  0  0  0  0  0  0  0  0  0  0
   16.5061    1.1700    9.8066 C   0  0  0  0  0  0  0  0  0  0  0  0
   15.1143    1.1057    9.8800 C   0  0  0  0  0  0  0  0  0  0  0  0
   14.5654    0.6508   11.0165 F   0  0  0  0  0  0  0  0  0  0  0  0
   12.1497    0.5443    8.2065 C   0  0  0  0  0  0  0  0  0  0  0  0
   10.7877    0.2762    8.1569 N   0  0  0  0  0  0  0  0  0  0  0  0
   10.6464   -0.7089    7.3037 C   0  0  0  0  0  0  0  0  0  0  0  0
    9.3939   -1.4265    6.8826 C   0  0  0  0  0  0  0  0  0  0  0  0
    9.4524   -2.5417    5.9042 C   0  0  0  0  0  0  0  0  0  0  0  0
   10.0494   -3.7628    6.2389 C   0  0  0  0  0  0  0  0  0  0  0  0
   10.5882   -3.9394    7.4543 F   0  0  0  0  0  0  0  0  0  0  0  0
   10.1398   -4.8094    5.3200 C   0  0  0  0  0  0  0  0  0  0  0  0
    9.6022   -4.6608    4.0430 C   0  0  0  0  0  0  0  0  0  0  0  0
    8.9858   -3.4612    3.6927 C   0  0  0  0  0  0  0  0  0  0  0  0
    8.9253   -2.4140    4.6136 C   0  0  0  0  0  0  0  0  0  0  0  0
    8.3320   -1.2727    4.2333 F   0  0  0  0  0  0  0  0  0  0  0  0
    8.2146   -1.0613    7.4196 C   0  0  0  0  0  0  0  0  0  0  0  0
    6.9226   -1.6675    7.1143 C   0  0  0  0  0  0  0  0  0  0  0  0
    5.9643   -1.0263    7.8020 C   0  0  0  0  0  0  0  0  0  0  0  0
    6.5816    0.0130    8.6283 C   0  0  0  0  0  0  0  0  0  0  0  0
    7.9188   -0.0803    8.3347 N   0  0  0  0  0  0  0  0  0  0  0  0
   11.9043   -1.1576    6.6903 C   0  0  0  0  0  0  0  0  0  0  0  0
   12.7925   -0.3903    7.3060 C   0  0  0  0  0  0  0  0  0  0  0  0
    6.7861    3.6317   11.5273 C   0  0  0  0  0  0  0  0  0  0  0  0
    5.8721    2.7753   11.0956 C   0  0  0  0  0  0  0  0  0  0  0  0
    3.6488    1.8096    9.1001 C   0  0  0  0  0  0  0  0  0  0  0  0
    2.2621    1.7443    9.1999 C   0  0  0  0  0  0  0  0  0  0  0  0
   -1.9058    3.4279    0.8304 N   0  0  0  0  0  0  0  0  0  0  0  0
    0.5591   -0.7575   -0.1167 H   0  0  0  0  0  0  0  0  0  0  0  0
    1.9005    0.2230    0.2667 H   0  0  0  0  0  0  0  0  0  0  0  0
    1.6850    2.5593   -0.5757 H   0  0  0  0  0  0  0  0  0  0  0  0
    2.1061    1.8148    1.7425 H   0  0  0  0  0  0  0  0  0  0  0  0
    0.6881    2.7036    2.2768 H   0  0  0  0  0  0  0  0  0  0  0  0
    3.1816    3.8858    1.0844 H   0  0  0  0  0  0  0  0  0  0  0  0
    2.6671    3.9973    2.7589 H   0  0  0  0  0  0  0  0  0  0  0  0
    2.1518    6.0415    1.4778 H   0  0  0  0  0  0  0  0  0  0  0  0
    0.7135    5.2481    2.1141 H   0  0  0  0  0  0  0  0  0  0  0  0
    1.7177    5.1501   -0.7148 H   0  0  0  0  0  0  0  0  0  0  0  0
    0.2541    5.9243   -0.1357 H   0  0  0  0  0  0  0  0  0  0  0  0
   -1.2668    4.9595   -2.0138 H   0  0  0  0  0  0  0  0  0  0  0  0
   -4.9131    3.9964   -0.4570 H   0  0  0  0  0  0  0  0  0  0  0  0
   -4.3173    1.6201    3.3335 H   0  0  0  0  0  0  0  0  0  0  0  0
   -1.5907    2.2472    2.5305 H   0  0  0  0  0  0  0  0  0  0  0  0
   -2.1121    0.8535    3.4649 H   0  0  0  0  0  0  0  0  0  0  0  0
   -2.4623    3.6541    4.4449 H   0  0  0  0  0  0  0  0  0  0  0  0
   -1.0039    2.6874    4.7522 H   0  0  0  0  0  0  0  0  0  0  0  0
   -3.7792    2.0218    5.6307 H   0  0  0  0  0  0  0  0  0  0  0  0
   -2.4188    2.5988    6.6367 H   0  0  0  0  0  0  0  0  0  0  0  0
   -2.6550   -0.0415    5.2824 H   0  0  0  0  0  0  0  0  0  0  0  0
   -2.6762    0.3292    7.0323 H   0  0  0  0  0  0  0  0  0  0  0  0
   -0.3351    0.6345    5.2192 H   0  0  0  0  0  0  0  0  0  0  0  0
   -0.6159   -0.6587    6.4152 H   0  0  0  0  0  0  0  0  0  0  0  0
   -0.2947    2.2274    7.0828 H   0  0  0  0  0  0  0  0  0  0  0  0
    0.9680    0.9993    7.1966 H   0  0  0  0  0  0  0  0  0  0  0  0
   -1.5192    0.8559    8.7096 H   0  0  0  0  0  0  0  0  0  0  0  0
    1.9795   -1.3206   10.5400 H   0  0  0  0  0  0  0  0  0  0  0  0
    4.4004   -1.1442   10.5069 H   0  0  0  0  0  0  0  0  0  0  0  0
    8.3654    5.8252   15.5616 H   0  0  0  0  0  0  0  0  0  0  0  0
    8.8924    8.0632   14.7764 H   0  0  0  0  0  0  0  0  0  0  0  0
    9.5707    8.3964   12.4677 H   0  0  0  0  0  0  0  0  0  0  0  0
   11.9363    4.7949   12.0375 H   0  0  0  0  0  0  0  0  0  0  0  0
   13.7921    3.6010   10.6488 H   0  0  0  0  0  0  0  0  0  0  0  0
   10.1373    1.9397    9.6355 H   0  0  0  0  0  0  0  0  0  0  0  0
   16.7834    2.3594    6.6942 H   0  0  0  0  0  0  0  0  0  0  0  0
   18.1498    1.6679    8.5803 H   0  0  0  0  0  0  0  0  0  0  0  0
   17.0799    0.8790   10.6135 H   0  0  0  0  0  0  0  0  0  0  0  0
   10.6040   -5.6919    5.5858 H   0  0  0  0  0  0  0  0  0  0  0  0
    9.6602   -5.4337    3.3616 H   0  0  0  0  0  0  0  0  0  0  0  0
    8.5744   -3.3471    2.7532 H   0  0  0  0  0  0  0  0  0  0  0  0
    6.7701   -2.4614    6.4729 H   0  0  0  0  0  0  0  0  0  0  0  0
    4.9542   -1.2329    7.7557 H   0  0  0  0  0  0  0  0  0  0  0  0
    8.6016    0.5008    8.7414 H   0  0  0  0  0  0  0  0  0  0  0  0
   12.0562   -1.8803    5.9695 H   0  0  0  0  0  0  0  0  0  0  0  0
   13.8126   -0.4511    7.1620 H   0  0  0  0  0  0  0  0  0  0  0  0
    6.5836    4.4509   12.1213 H   0  0  0  0  0  0  0  0  0  0  0  0
    4.8645    2.7334   11.3145 H   0  0  0  0  0  0  0  0  0  0  0  0
    4.0949    2.6414    8.6827 H   0  0  0  0  0  0  0  0  0  0  0  0
    1.6851    2.5556    8.9282 H   0  0  0  0  0  0  0  0  0  0  0  0
  1  2  1  0  0  0  0
  1 82  1  0  0  0  0
  1 83  1  0  0  0  0
  2  3  2  0  0  0  0
  2  4  1  0  0  0  0
  4  5  1  0  0  0  0
  4  9  1  0  0  0  0
  4 84  1  6  0  0  0
  5  6  1  0  0  0  0
  5 85  1  0  0  0  0
  5 86  1  0  0  0  0
  6  7  1  0  0  0  0
  6 87  1  0  0  0  0
  6 88  1  0  0  0  0
  7  8  1  0  0  0  0
  7 89  1  0  0  0  0
  7 90  1  0  0  0  0
  8  9  1  0  0  0  0
  8 91  1  0  0  0  0
  8 92  1  0  0  0  0
  9 10  1  0  0  0  0
 10 11  1  0  0  0  0
 10 81  2  0  0  0  0
 11 12  2  0  0  0  0
 11 93  1  0  0  0  0
 12 13  1  0  0  0  0
 13 14  2  0  0  0  0
 13 94  1  0  0  0  0
 14 15  1  0  0  0  0
 14 81  1  0  0  0  0
 15 16  2  0  0  0  0
 15 17  1  0  0  0  0
 17 18  1  0  0  0  0
 17 95  1  0  0  0  0
 18 19  1  0  0  0  0
 18 96  1  0  0  0  0
 18 97  1  0  0  0  0
 19 20  1  0  0  0  0
 19 98  1  0  0  0  0
 19 99  1  0  0  0  0
 20 21  1  0  0  0  0
 20100  1  0  0  0  0
 20101  1  0  0  0  0
 21 22  1  0  0  0  0
 21102  1  0  0  0  0
 21103  1  0  0  0  0
 22 23  1  0  0  0  0
 22104  1  0  0  0  0
 22105  1  0  0  0  0
 23 24  1  0  0  0  0
 23106  1  0  0  0  0
 23107  1  0  0  0  0
 24 25  1  0  0  0  0
 24108  1  0  0  0  0
 25 26  2  0  0  0  0
 25 27  1  0  0  0  0
 27 28  1  0  0  0  0
 27 80  2  0  0  0  0
 28 29  2  0  0  0  0
 28109  1  0  0  0  0
 29 30  1  0  0  0  0
 29110  1  0  0  0  0
 30 31  1  0  0  0  0
 30 79  2  0  0  0  0
 31 32  1  0  0  0  0
 31 73  2  0  0  0  0
 32 33  2  0  0  0  0
 32 78  1  0  0  0  0
 33 34  1  0  0  0  0
 34 35  2  0  0  0  0
 34 77  1  0  0  0  0
 35 36  1  0  0  0  0
 35 44  1  0  0  0  0
 36 37  1  0  0  0  0
 36 42  2  0  0  0  0
 37 38  1  0  0  0  0
 37 39  2  0  0  0  0
 39 40  1  0  0  0  0
 39111  1  0  0  0  0
 40 41  2  0  0  0  0
 40112  1  0  0  0  0
 41 42  1  0  0  0  0
 41113  1  0  0  0  0
 42 43  1  0  0  0  0
 44 45  2  0  0  0  0
 44 48  1  0  0  0  0
 45 46  1  0  0  0  0
 45114  1  0  0  0  0
 46 47  2  0  0  0  0
 46115  1  0  0  0  0
 47 48  1  0  0  0  0
 47 49  1  0  0  0  0
 48116  1  0  0  0  0
 49 50  1  0  0  0  0
 49 58  2  0  0  0  0
 50 51  1  0  0  0  0
 50 56  2  0  0  0  0
 51 52  1  0  0  0  0
 51 53  2  0  0  0  0
 53 54  1  0  0  0  0
 53117  1  0  0  0  0
 54 55  2  0  0  0  0
 54118  1  0  0  0  0
 55 56  1  0  0  0  0
 55119  1  0  0  0  0
 56 57  1  0  0  0  0
 58 59  1  0  0  0  0
 58 76  1  0  0  0  0
 59 60  2  0  0  0  0
 60 61  1  0  0  0  0
 60 75  1  0  0  0  0
 61 62  1  0  0  0  0
 61 70  2  0  0  0  0
 62 63  1  0  0  0  0
 62 68  2  0  0  0  0
 63 64  1  0  0  0  0
 63 65  2  0  0  0  0
 65 66  1  0  0  0  0
 65120  1  0  0  0  0
 66 67  2  0  0  0  0
 66121  1  0  0  0  0
 67 68  1  0  0  0  0
 67122  1  0  0  0  0
 68 69  1  0  0  0  0
 70 71  1  0  0  0  0
 70 74  1  0  0  0  0
 71 72  2  0  0  0  0
 71123  1  0  0  0  0
 72 73  1  0  0  0  0
 72124  1  0  0  0  0
 73 74  1  0  0  0  0
 74125  1  0  0  0  0
 75 76  2  0  0  0  0
 75126  1  0  0  0  0
 76127  1  0  0  0  0
 77 78  2  0  0  0  0
 77128  1  0  0  0  0
 78129  1  0  0  0  0
 79 80  1  0  0  0  0
 79130  1  0  0  0  0
 80131  1  0  0  0  0
M  END
$$$$
