1_0_1732
 OpenBabel04152301363D

143154  0  0  1  0  0  0  0  0999 V2000
    1.3769    0.2768   -0.1161 C   0  0  0  0  0  0  0  0  0  0  0  0
    0.6212    0.6756   -1.3919 C   0  0  0  0  0  0  0  0  0  0  0  0
    0.9738   -0.3017   -2.5181 C   0  0  0  0  0  0  0  0  0  0  0  0
   -0.8836    0.6145   -1.0743 C   0  0  0  0  0  0  0  0  0  0  0  0
    1.1378    1.9917   -1.7568 O   0  0  0  0  0  0  0  0  0  0  0  0
    0.4232    2.8001   -2.5796 C   0  0  0  0  0  0  0  0  0  0  0  0
   -0.7388    2.6064   -2.9129 O   0  0  0  0  0  0  0  0  0  0  0  0
    1.1268    3.9001   -3.0177 N   0  0  0  0  0  0  0  0  0  0  0  0
    0.4565    4.8399   -3.8978 C   0  0  0  0  0  0  0  0  0  0  0  0
    1.5187    5.8188   -4.3636 C   0  0  1  0  0  0  0  0  0  0  0  0
    1.3112    7.2216   -3.8114 C   0  0  0  0  0  0  0  0  0  0  0  0
    1.2830    8.1740   -4.6017 O   0  0  0  0  0  0  0  0  0  0  0  0
    1.1661    7.5519   -2.5044 N   0  0  0  0  0  0  0  0  0  0  0  0
    1.1433    6.8090   -1.2544 C   0  0  0  0  0  0  0  0  0  0  0  0
    2.4488    6.9459   -0.4659 C   0  0  0  0  0  0  0  0  0  0  0  0
    2.7221    8.3612    0.0579 C   0  0  0  0  0  0  0  0  0  0  0  0
    1.7846    8.8140    1.1817 C   0  0  0  0  0  0  0  0  0  0  0  0
    1.7366    7.8872    2.4012 C   0  0  0  0  0  0  0  0  0  0  0  0
    3.0854    7.6394    3.0721 C   0  0  0  0  0  0  0  0  0  0  0  0
    3.6111    8.8426    3.6934 N   0  0  0  0  0  0  0  0  0  0  0  0
    4.1035    9.0127    4.9627 C   0  0  0  0  0  0  0  0  0  0  0  0
    4.3185   10.1405    5.3955 O   0  0  0  0  0  0  0  0  0  0  0  0
    4.3637    7.8351    5.8187 C   0  0  0  0  0  0  0  0  0  0  0  0
    3.9434    7.8669    7.1506 C   0  0  0  0  0  0  0  0  0  0  0  0
    4.1753    6.7652    7.9759 C   0  0  0  0  0  0  0  0  0  0  0  0
    4.8038    5.6155    7.4687 C   0  0  0  0  0  0  0  0  0  0  0  0
    5.0240    4.4335    8.3387 C   0  0  0  0  0  0  0  0  0  0  0  0
    6.4154    4.0279    8.7378 C   0  0  0  0  0  0  0  0  0  0  0  0
    6.7987    3.0441    9.5122 N   0  0  0  0  0  0  0  0  0  0  0  0
    8.1869    3.0889    9.5226 C   0  0  0  0  0  0  0  0  0  0  0  0
    9.0545    2.3209   10.2245 C   0  0  0  0  0  0  0  0  0  0  0  0
   10.5186    2.6017   10.0519 C   0  0  0  0  0  0  0  0  0  0  0  0
   11.1138    3.7549   10.5804 C   0  0  0  0  0  0  0  0  0  0  0  0
   10.3722    4.6667   11.2276 F   0  0  0  0  0  0  0  0  0  0  0  0
   12.4765    4.0123   10.4212 C   0  0  0  0  0  0  0  0  0  0  0  0
   13.2835    3.0958    9.7500 C   0  0  0  0  0  0  0  0  0  0  0  0
   12.7171    1.9327    9.2320 C   0  0  0  0  0  0  0  0  0  0  0  0
   11.3482    1.6984    9.3762 C   0  0  0  0  0  0  0  0  0  0  0  0
   10.8441    0.5721    8.8502 F   0  0  0  0  0  0  0  0  0  0  0  0
    8.6612    1.2685   11.1247 C   0  0  0  0  0  0  0  0  0  0  0  0
    9.4619    0.4679   11.9211 C   0  0  0  0  0  0  0  0  0  0  0  0
    8.6377   -0.4315   12.6073 C   0  0  0  0  0  0  0  0  0  0  0  0
    7.3216   -0.1651   12.2665 C   0  0  0  0  0  0  0  0  0  0  0  0
    7.3515    0.8731   11.3498 N   0  0  0  0  0  0  0  0  0  0  0  0
    6.1237   -0.8049   12.7452 C   0  0  0  0  0  0  0  0  0  0  0  0
    6.2633   -1.8697   13.7918 C   0  0  0  0  0  0  0  0  0  0  0  0
    6.0678   -3.2249   13.4983 C   0  0  0  0  0  0  0  0  0  0  0  0
    5.7168   -3.6090   12.2617 F   0  0  0  0  0  0  0  0  0  0  0  0
    6.1896   -4.2076   14.4820 C   0  0  0  0  0  0  0  0  0  0  0  0
    6.5423   -3.8507   15.7824 C   0  0  0  0  0  0  0  0  0  0  0  0
    6.7626   -2.5099   16.0917 C   0  0  0  0  0  0  0  0  0  0  0  0
    6.6148   -1.5343   15.1053 C   0  0  0  0  0  0  0  0  0  0  0  0
    6.8235   -0.2545   15.4493 F   0  0  0  0  0  0  0  0  0  0  0  0
    4.8666   -0.5040   12.3377 C   0  0  0  0  0  0  0  0  0  0  0  0
    4.4516    0.4489   11.4171 N   0  0  0  0  0  0  0  0  0  0  0  0
    3.1460    0.3472   11.3596 C   0  0  0  0  0  0  0  0  0  0  0  0
    2.1673    1.1567   10.5569 C   0  0  0  0  0  0  0  0  0  0  0  0
    0.7106    0.8931   10.6486 C   0  0  0  0  0  0  0  0  0  0  0  0
   -0.0064    1.2106   11.8080 C   0  0  0  0  0  0  0  0  0  0  0  0
    0.6228    1.7454   12.8648 F   0  0  0  0  0  0  0  0  0  0  0  0
   -1.3734    0.9525   11.9156 C   0  0  0  0  0  0  0  0  0  0  0  0
   -2.0595    0.3879   10.8421 C   0  0  0  0  0  0  0  0  0  0  0  0
   -1.3693    0.0779    9.6714 C   0  0  0  0  0  0  0  0  0  0  0  0
    0.0022    0.3218    9.5859 C   0  0  0  0  0  0  0  0  0  0  0  0
    0.6320    0.0043    8.4452 F   0  0  0  0  0  0  0  0  0  0  0  0
    2.6193    2.1655    9.7891 C   0  0  0  0  0  0  0  0  0  0  0  0
    1.7860    3.0647    8.9969 C   0  0  0  0  0  0  0  0  0  0  0  0
    2.5729    3.9609    8.3797 C   0  0  0  0  0  0  0  0  0  0  0  0
    3.9668    3.7073    8.7489 C   0  0  0  0  0  0  0  0  0  0  0  0
    3.9001    2.6098    9.5689 N   0  0  0  0  0  0  0  0  0  0  0  0
    2.5857   -0.7051   12.2187 C   0  0  0  0  0  0  0  0  0  0  0  0
    3.6722   -1.1644   12.8232 C   0  0  0  0  0  0  0  0  0  0  0  0
    8.5808    4.1637    8.6373 C   0  0  0  0  0  0  0  0  0  0  0  0
    7.5234    4.8149    8.1749 C   0  0  0  0  0  0  0  0  0  0  0  0
    5.2280    5.5989    6.1319 C   0  0  0  0  0  0  0  0  0  0  0  0
    5.0471    6.7198    5.3230 C   0  0  0  0  0  0  0  0  0  0  0  0
    2.8558    5.1019   -4.1160 C   0  0  1  0  0  0  0  0  0  0  0  0
    2.5696    4.1533   -2.9333 C   0  0  0  0  0  0  0  0  0  0  0  0
    3.1634    4.1299   -5.3020 C   0  0  0  0  0  0  0  0  0  0  0  0
    2.4138    3.3084   -5.8046 O   0  0  0  0  0  0  0  0  0  0  0  0
    4.4772    4.3210   -5.6853 N   0  0  0  0  0  0  0  0  0  0  0  0
    5.0384    5.3966   -5.0291 C   0  0  0  0  0  0  0  0  0  0  0  0
    6.2754    5.9511   -5.3029 C   0  0  0  0  0  0  0  0  0  0  0  0
    6.6020    7.1428   -4.6625 C   0  0  0  0  0  0  0  0  0  0  0  0
    5.6904    7.7391   -3.7829 C   0  0  0  0  0  0  0  0  0  0  0  0
    4.4524    7.1387   -3.5119 C   0  0  0  0  0  0  0  0  0  0  0  0
    4.1251    5.9362   -4.1198 C   0  0  0  0  0  0  0  0  0  0  0  0
    1.0441   -0.6867    0.2091 H   0  0  0  0  0  0  0  0  0  0  0  0
    1.1864    0.9977    0.6513 H   0  0  0  0  0  0  0  0  0  0  0  0
    2.4268    0.2416   -0.3197 H   0  0  0  0  0  0  0  0  0  0  0  0
    0.6049   -1.2758   -2.2735 H   0  0  0  0  0  0  0  0  0  0  0  0
    2.0366   -0.3420   -2.6357 H   0  0  0  0  0  0  0  0  0  0  0  0
    0.5262    0.0302   -3.4315 H   0  0  0  0  0  0  0  0  0  0  0  0
   -1.1542   -0.3893   -0.8211 H   0  0  0  0  0  0  0  0  0  0  0  0
   -1.4420    0.9291   -1.9311 H   0  0  0  0  0  0  0  0  0  0  0  0
   -1.1007    1.2612   -0.2500 H   0  0  0  0  0  0  0  0  0  0  0  0
   -0.3168    5.3564   -3.3685 H   0  0  0  0  0  0  0  0  0  0  0  0
   -0.0010    4.3394   -4.7255 H   0  0  0  0  0  0  0  0  0  0  0  0
    1.4766    6.0566   -5.4060 H   0  0  0  0  0  0  0  0  0  0  0  0
    1.0489    8.5202   -2.3704 H   0  0  0  0  0  0  0  0  0  0  0  0
    0.9818    5.7742   -1.4734 H   0  0  0  0  0  0  0  0  0  0  0  0
    0.3562    7.2116   -0.6517 H   0  0  0  0  0  0  0  0  0  0  0  0
    3.2584    6.6629   -1.1057 H   0  0  0  0  0  0  0  0  0  0  0  0
    2.3573    6.3131    0.3921 H   0  0  0  0  0  0  0  0  0  0  0  0
    2.6202    9.0453   -0.7585 H   0  0  0  0  0  0  0  0  0  0  0  0
    3.7089    8.3477    0.4713 H   0  0  0  0  0  0  0  0  0  0  0  0
    0.7954    8.8846    0.7799 H   0  0  0  0  0  0  0  0  0  0  0  0
    2.1697    9.7486    1.5326 H   0  0  0  0  0  0  0  0  0  0  0  0
    1.3433    6.9432    2.0863 H   0  0  0  0  0  0  0  0  0  0  0  0
    1.1248    8.3788    3.1285 H   0  0  0  0  0  0  0  0  0  0  0  0
    3.7813    7.2989    2.3341 H   0  0  0  0  0  0  0  0  0  0  0  0
    2.9448    6.9054    3.8378 H   0  0  0  0  0  0  0  0  0  0  0  0
    3.6145    9.6468    3.1255 H   0  0  0  0  0  0  0  0  0  0  0  0
    3.4635    8.7013    7.5228 H   0  0  0  0  0  0  0  0  0  0  0  0
    3.8831    6.7954    8.9652 H   0  0  0  0  0  0  0  0  0  0  0  0
   12.8859    4.8805   10.8002 H   0  0  0  0  0  0  0  0  0  0  0  0
   14.2932    3.2771    9.6373 H   0  0  0  0  0  0  0  0  0  0  0  0
   13.3095    1.2444    8.7417 H   0  0  0  0  0  0  0  0  0  0  0  0
   10.4896    0.5245   11.9960 H   0  0  0  0  0  0  0  0  0  0  0  0
    8.9562   -1.1677   13.2566 H   0  0  0  0  0  0  0  0  0  0  0  0
    6.5596    1.2714   10.9214 H   0  0  0  0  0  0  0  0  0  0  0  0
    6.0186   -5.1978   14.2467 H   0  0  0  0  0  0  0  0  0  0  0  0
    6.6397   -4.5747   16.5114 H   0  0  0  0  0  0  0  0  0  0  0  0
    7.0348   -2.2388   17.0495 H   0  0  0  0  0  0  0  0  0  0  0  0
   -1.8753    1.1793   12.7884 H   0  0  0  0  0  0  0  0  0  0  0  0
   -3.0718    0.2005   10.9134 H   0  0  0  0  0  0  0  0  0  0  0  0
   -1.8720   -0.3316    8.8685 H   0  0  0  0  0  0  0  0  0  0  0  0
    0.7577    3.0191    8.9230 H   0  0  0  0  0  0  0  0  0  0  0  0
    2.2474    4.7083    7.7468 H   0  0  0  0  0  0  0  0  0  0  0  0
    4.6945    2.1814    9.9621 H   0  0  0  0  0  0  0  0  0  0  0  0
    1.6045   -1.0071   12.3237 H   0  0  0  0  0  0  0  0  0  0  0  0
    3.6678   -1.8992   13.5478 H   0  0  0  0  0  0  0  0  0  0  0  0
    9.5579    4.3932    8.3973 H   0  0  0  0  0  0  0  0  0  0  0  0
    7.4868    5.6547    7.5763 H   0  0  0  0  0  0  0  0  0  0  0  0
    5.6759    4.7533    5.7455 H   0  0  0  0  0  0  0  0  0  0  0  0
    5.4170    6.7267    4.3596 H   0  0  0  0  0  0  0  0  0  0  0  0
    3.1216    3.2423   -3.0350 H   0  0  0  0  0  0  0  0  0  0  0  0
    2.8583    4.5723   -1.9920 H   0  0  0  0  0  0  0  0  0  0  0  0
    4.9515    3.7616   -6.3421 H   0  0  0  0  0  0  0  0  0  0  0  0
    6.9319    5.4981   -5.9577 H   0  0  0  0  0  0  0  0  0  0  0  0
    7.5170    7.5874   -4.8361 H   0  0  0  0  0  0  0  0  0  0  0  0
    5.9329    8.6329   -3.3276 H   0  0  0  0  0  0  0  0  0  0  0  0
    3.7883    7.5896   -2.8633 H   0  0  0  0  0  0  0  0  0  0  0  0
  1  2  1  0  0  0  0
  1 88  1  0  0  0  0
  1 89  1  0  0  0  0
  1 90  1  0  0  0  0
  2  3  1  0  0  0  0
  2  4  1  0  0  0  0
  2  5  1  0  0  0  0
  3 91  1  0  0  0  0
  3 92  1  0  0  0  0
  3 93  1  0  0  0  0
  4 94  1  0  0  0  0
  4 95  1  0  0  0  0
  4 96  1  0  0  0  0
  5  6  1  0  0  0  0
  6  7  2  0  0  0  0
  6  8  1  0  0  0  0
  8  9  1  0  0  0  0
  8 78  1  0  0  0  0
  9 10  1  0  0  0  0
  9 97  1  0  0  0  0
  9 98  1  0  0  0  0
 10 11  1  0  0  0  0
 10 77  1  0  0  0  0
 10 99  1  6  0  0  0
 11 12  2  0  0  0  0
 11 13  1  0  0  0  0
 13 14  1  0  0  0  0
 13100  1  0  0  0  0
 14 15  1  0  0  0  0
 14101  1  0  0  0  0
 14102  1  0  0  0  0
 15 16  1  0  0  0  0
 15103  1  0  0  0  0
 15104  1  0  0  0  0
 16 17  1  0  0  0  0
 16105  1  0  0  0  0
 16106  1  0  0  0  0
 17 18  1  0  0  0  0
 17107  1  0  0  0  0
 17108  1  0  0  0  0
 18 19  1  0  0  0  0
 18109  1  0  0  0  0
 18110  1  0  0  0  0
 19 20  1  0  0  0  0
 19111  1  0  0  0  0
 19112  1  0  0  0  0
 20 21  1  0  0  0  0
 20113  1  0  0  0  0
 21 22  2  0  0  0  0
 21 23  1  0  0  0  0
 23 24  1  0  0  0  0
 23 76  2  0  0  0  0
 24 25  2  0  0  0  0
 24114  1  0  0  0  0
 25 26  1  0  0  0  0
 25115  1  0  0  0  0
 26 27  1  0  0  0  0
 26 75  2  0  0  0  0
 27 28  1  0  0  0  0
 27 69  2  0  0  0  0
 28 29  2  0  0  0  0
 28 74  1  0  0  0  0
 29 30  1  0  0  0  0
 30 31  2  0  0  0  0
 30 73  1  0  0  0  0
 31 32  1  0  0  0  0
 31 40  1  0  0  0  0
 32 33  1  0  0  0  0
 32 38  2  0  0  0  0
 33 34  1  0  0  0  0
 33 35  2  0  0  0  0
 35 36  1  0  0  0  0
 35116  1  0  0  0  0
 36 37  2  0  0  0  0
 36117  1  0  0  0  0
 37 38  1  0  0  0  0
 37118  1  0  0  0  0
 38 39  1  0  0  0  0
 40 41  2  0  0  0  0
 40 44  1  0  0  0  0
 41 42  1  0  0  0  0
 41119  1  0  0  0  0
 42 43  2  0  0  0  0
 42120  1  0  0  0  0
 43 44  1  0  0  0  0
 43 45  1  0  0  0  0
 44121  1  0  0  0  0
 45 46  1  0  0  0  0
 45 54  2  0  0  0  0
 46 47  1  0  0  0  0
 46 52  2  0  0  0  0
 47 48  1  0  0  0  0
 47 49  2  0  0  0  0
 49 50  1  0  0  0  0
 49122  1  0  0  0  0
 50 51  2  0  0  0  0
 50123  1  0  0  0  0
 51 52  1  0  0  0  0
 51124  1  0  0  0  0
 52 53  1  0  0  0  0
 54 55  1  0  0  0  0
 54 72  1  0  0  0  0
 55 56  2  0  0  0  0
 56 57  1  0  0  0  0
 56 71  1  0  0  0  0
 57 58  1  0  0  0  0
 57 66  2  0  0  0  0
 58 59  1  0  0  0  0
 58 64  2  0  0  0  0
 59 60  1  0  0  0  0
 59 61  2  0  0  0  0
 61 62  1  0  0  0  0
 61125  1  0  0  0  0
 62 63  2  0  0  0  0
 62126  1  0  0  0  0
 63 64  1  0  0  0  0
 63127  1  0  0  0  0
 64 65  1  0  0  0  0
 66 67  1  0  0  0  0
 66 70  1  0  0  0  0
 67 68  2  0  0  0  0
 67128  1  0  0  0  0
 68 69  1  0  0  0  0
 68129  1  0  0  0  0
 69 70  1  0  0  0  0
 70130  1  0  0  0  0
 71 72  2  0  0  0  0
 71131  1  0  0  0  0
 72132  1  0  0  0  0
 73 74  2  0  0  0  0
 73133  1  0  0  0  0
 74134  1  0  0  0  0
 75 76  1  0  0  0  0
 75135  1  0  0  0  0
 76136  1  0  0  0  0
 77 78  1  0  0  0  0
 77 79  1  6  0  0  0
 77 87  1  0  0  0  0
 78137  1  0  0  0  0
 78138  1  0  0  0  0
 79 80  2  0  0  0  0
 79 81  1  0  0  0  0
 81 82  1  0  0  0  0
 81139  1  0  0  0  0
 82 83  1  0  0  0  0
 82 87  2  0  0  0  0
 83 84  2  0  0  0  0
 83140  1  0  0  0  0
 84 85  1  0  0  0  0
 84141  1  0  0  0  0
 85 86  2  0  0  0  0
 85142  1  0  0  0  0
 86 87  1  0  0  0  0
 86143  1  0  0  0  0
M  END
$$$$
