1_0_3258
 OpenBabel04152301373D

133142  0  0  1  0  0  0  0  0999 V2000
    1.2729   -0.1153   -0.2051 C   0  0  0  0  0  0  0  0  0  0  0  0
    0.6496    0.3948    1.0900 C   0  0  0  0  0  0  0  0  0  0  0  0
    0.9081    1.8786    1.3518 C   0  0  1  0  0  0  0  0  0  0  0  0
    0.3239    2.7400    0.2957 N   0  3  0  0  0  0  0  0  0  0  0  0
    0.5015    2.4776    2.7311 C   0  0  0  0  0  0  0  0  0  0  0  0
    1.3389    3.1565    3.3421 O   0  0  0  0  0  0  0  0  0  0  0  0
   -0.8087    2.4530    3.1573 N   0  0  0  0  0  0  0  0  0  0  0  0
   -1.3054    3.5254    3.9869 C   0  0  0  0  0  0  0  0  0  0  0  0
   -2.7299    3.6969    3.4970 C   0  0  0  0  0  0  0  0  0  0  0  0
   -3.2031    2.2570    3.2337 C   0  0  2  0  0  0  0  0  0  0  0  0
   -4.0349    1.7424    4.4074 C   0  0  0  0  0  0  0  0  0  0  0  0
   -3.7410    0.7833    5.1150 O   0  0  0  0  0  0  0  0  0  0  0  0
   -5.2136    2.3589    4.6986 N   0  0  0  0  0  0  0  0  0  0  0  0
   -5.8809    3.4660    4.0460 C   0  0  0  0  0  0  0  0  0  0  0  0
   -7.3709    3.1930    3.8678 C   0  0  0  0  0  0  0  0  0  0  0  0
   -8.1252    2.8632    5.1623 C   0  0  0  0  0  0  0  0  0  0  0  0
   -7.9529    3.8741    6.2999 C   0  0  0  0  0  0  0  0  0  0  0  0
   -8.3134    5.3162    5.9448 C   0  0  0  0  0  0  0  0  0  0  0  0
   -9.7088    5.4976    5.3629 C   0  0  0  0  0  0  0  0  0  0  0  0
  -10.7536    5.0909    6.2877 N   0  0  0  0  0  0  0  0  0  0  0  0
  -11.8786    5.7751    6.6713 C   0  0  0  0  0  0  0  0  0  0  0  0
  -12.5760    5.3585    7.5928 O   0  0  0  0  0  0  0  0  0  0  0  0
  -12.2334    7.0352    5.9871 C   0  0  0  0  0  0  0  0  0  0  0  0
  -12.5975    8.1416    6.7568 C   0  0  0  0  0  0  0  0  0  0  0  0
  -12.8611    9.3604    6.1300 C   0  0  0  0  0  0  0  0  0  0  0  0
  -12.7170    9.4900    4.7384 C   0  0  0  0  0  0  0  0  0  0  0  0
  -12.9283   10.7952    4.0625 C   0  0  0  0  0  0  0  0  0  0  0  0
  -14.0410   10.9548    3.0628 C   0  0  0  0  0  0  0  0  0  0  0  0
  -14.3461   11.9910    2.3233 N   0  0  0  0  0  0  0  0  0  0  0  0
  -15.4422   11.6028    1.5634 C   0  0  0  0  0  0  0  0  0  0  0  0
  -16.1833   12.3431    0.7052 C   0  0  0  0  0  0  0  0  0  0  0  0
  -17.3570   11.6749    0.0489 C   0  0  0  0  0  0  0  0  0  0  0  0
  -18.5017   11.3222    0.7771 C   0  0  0  0  0  0  0  0  0  0  0  0
  -18.5535   11.5252    2.1025 F   0  0  0  0  0  0  0  0  0  0  0  0
  -19.6027   10.7227    0.1639 C   0  0  0  0  0  0  0  0  0  0  0  0
  -19.5934   10.4934   -1.2102 C   0  0  0  0  0  0  0  0  0  0  0  0
  -18.4730   10.8501   -1.9582 C   0  0  0  0  0  0  0  0  0  0  0  0
  -17.3662   11.4224   -1.3285 C   0  0  0  0  0  0  0  0  0  0  0  0
  -16.3063   11.7401   -2.0871 F   0  0  0  0  0  0  0  0  0  0  0  0
  -15.9254   13.7254    0.3987 C   0  0  0  0  0  0  0  0  0  0  0  0
  -16.6292   14.5677   -0.4443 C   0  0  0  0  0  0  0  0  0  0  0  0
  -15.9856   15.8089   -0.4598 C   0  0  0  0  0  0  0  0  0  0  0  0
  -14.9128   15.7561    0.4150 C   0  0  0  0  0  0  0  0  0  0  0  0
  -14.8809   14.4692    0.9265 N   0  0  0  0  0  0  0  0  0  0  0  0
  -13.9837   16.8023    0.7566 C   0  0  0  0  0  0  0  0  0  0  0  0
  -14.1856   18.1521    0.1306 C   0  0  0  0  0  0  0  0  0  0  0  0
  -13.3093   18.6632   -0.8349 C   0  0  0  0  0  0  0  0  0  0  0  0
  -12.2213   17.9689   -1.2016 F   0  0  0  0  0  0  0  0  0  0  0  0
  -13.5127   19.9174   -1.4130 C   0  0  0  0  0  0  0  0  0  0  0  0
  -14.6281   20.6746   -1.0593 C   0  0  0  0  0  0  0  0  0  0  0  0
  -15.5252   20.1772   -0.1168 C   0  0  0  0  0  0  0  0  0  0  0  0
  -15.2943   18.9360    0.4769 C   0  0  0  0  0  0  0  0  0  0  0  0
  -16.1787   18.5018    1.3875 F   0  0  0  0  0  0  0  0  0  0  0  0
  -12.9514   16.6679    1.6245 C   0  0  0  0  0  0  0  0  0  0  0  0
  -12.5718   15.5575    2.3684 N   0  0  0  0  0  0  0  0  0  0  0  0
  -11.5074   15.9230    3.0410 C   0  0  0  0  0  0  0  0  0  0  0  0
  -10.6977   15.1412    4.0408 C   0  0  0  0  0  0  0  0  0  0  0  0
   -9.5362   15.7711    4.7218 C   0  0  0  0  0  0  0  0  0  0  0  0
   -9.7121   16.8429    5.6060 C   0  0  0  0  0  0  0  0  0  0  0  0
  -10.9440   17.3004    5.8750 F   0  0  0  0  0  0  0  0  0  0  0  0
   -8.6260   17.5019    6.1844 C   0  0  0  0  0  0  0  0  0  0  0  0
   -7.3289   17.0712    5.9150 C   0  0  0  0  0  0  0  0  0  0  0  0
   -7.1292   15.9850    5.0654 C   0  0  0  0  0  0  0  0  0  0  0  0
   -8.2234   15.3553    4.4696 C   0  0  0  0  0  0  0  0  0  0  0  0
   -7.9845   14.3293    3.6396 F   0  0  0  0  0  0  0  0  0  0  0  0
  -11.0464   13.8698    4.3150 C   0  0  0  0  0  0  0  0  0  0  0  0
  -10.3631   12.9884    5.2558 C   0  0  0  0  0  0  0  0  0  0  0  0
  -10.9561   11.7837    5.2376 C   0  0  0  0  0  0  0  0  0  0  0  0
  -12.0924   11.8217    4.3144 C   0  0  0  0  0  0  0  0  0  0  0  0
  -12.0664   13.0984    3.8112 N   0  0  0  0  0  0  0  0  0  0  0  0
  -11.0680   17.2986    2.7659 C   0  0  0  0  0  0  0  0  0  0  0  0
  -12.0122   17.7233    1.9395 C   0  0  0  0  0  0  0  0  0  0  0  0
  -15.7060   10.2159    1.8780 C   0  0  0  0  0  0  0  0  0  0  0  0
  -14.9133    9.7883    2.8492 C   0  0  0  0  0  0  0  0  0  0  0  0
  -12.3755    8.3623    3.9768 C   0  0  0  0  0  0  0  0  0  0  0  0
  -12.1910    7.1286    4.5927 C   0  0  0  0  0  0  0  0  0  0  0  0
   -1.8915    1.5132    2.8445 C   0  0  2  0  0  0  0  0  0  0  0  0
   -1.6445    0.1740    3.5376 C   0  0  0  0  0  0  0  0  0  0  0  0
    1.0520   -1.1557   -0.3216 H   0  0  0  0  0  0  0  0  0  0  0  0
    2.3334    0.0223   -0.1689 H   0  0  0  0  0  0  0  0  0  0  0  0
    0.8706    0.4297   -1.0334 H   0  0  0  0  0  0  0  0  0  0  0  0
    1.0549   -0.1679    1.9048 H   0  0  0  0  0  0  0  0  0  0  0  0
   -0.4094    0.2728    0.9974 H   0  0  0  0  0  0  0  0  0  0  0  0
    1.9781    1.8853    1.3493 H   0  0  0  0  0  0  0  0  0  0  0  0
   -0.6939    2.6953    0.3449 H   0  0  0  0  0  0  0  0  0  0  0  0
    0.6347    2.4140   -0.6195 H   0  0  0  0  0  0  0  0  0  0  0  0
    0.6291    3.7032    0.4352 H   0  0  0  0  0  0  0  0  0  0  0  0
   -0.7373    4.4203    3.8410 H   0  0  0  0  0  0  0  0  0  0  0  0
   -1.2399    3.3159    5.0342 H   0  0  0  0  0  0  0  0  0  0  0  0
   -2.7567    4.2773    2.5985 H   0  0  0  0  0  0  0  0  0  0  0  0
   -3.3496    4.2143    4.1993 H   0  0  0  0  0  0  0  0  0  0  0  0
   -3.9030    2.1165    2.4367 H   0  0  0  0  0  0  0  0  0  0  0  0
   -5.6890    1.9927    5.4791 H   0  0  0  0  0  0  0  0  0  0  0  0
   -5.4382    3.6209    3.0843 H   0  0  0  0  0  0  0  0  0  0  0  0
   -5.7696    4.3348    4.6605 H   0  0  0  0  0  0  0  0  0  0  0  0
   -7.4797    2.3647    3.1992 H   0  0  0  0  0  0  0  0  0  0  0  0
   -7.7997    4.0986    3.4924 H   0  0  0  0  0  0  0  0  0  0  0  0
   -7.7813    1.9120    5.5113 H   0  0  0  0  0  0  0  0  0  0  0  0
   -9.1648    2.8789    4.9094 H   0  0  0  0  0  0  0  0  0  0  0  0
   -6.9285    3.8547    6.6084 H   0  0  0  0  0  0  0  0  0  0  0  0
   -8.6349    3.5768    7.0690 H   0  0  0  0  0  0  0  0  0  0  0  0
   -7.6039    5.6700    5.2262 H   0  0  0  0  0  0  0  0  0  0  0  0
   -8.2939    5.8674    6.8617 H   0  0  0  0  0  0  0  0  0  0  0  0
   -9.7891    4.9083    4.4734 H   0  0  0  0  0  0  0  0  0  0  0  0
   -9.8431    6.5391    5.1576 H   0  0  0  0  0  0  0  0  0  0  0  0
  -10.6378    4.2020    6.6948 H   0  0  0  0  0  0  0  0  0  0  0  0
  -12.6713    8.0587    7.7828 H   0  0  0  0  0  0  0  0  0  0  0  0
  -13.1637   10.1713    6.6920 H   0  0  0  0  0  0  0  0  0  0  0  0
  -20.4228   10.4496    0.7277 H   0  0  0  0  0  0  0  0  0  0  0  0
  -20.4102   10.0625   -1.6708 H   0  0  0  0  0  0  0  0  0  0  0  0
  -18.4614   10.6912   -2.9778 H   0  0  0  0  0  0  0  0  0  0  0  0
  -17.4821   14.3220   -0.9708 H   0  0  0  0  0  0  0  0  0  0  0  0
  -16.2627   16.6256   -1.0266 H   0  0  0  0  0  0  0  0  0  0  0  0
  -14.2155   14.1326    1.5693 H   0  0  0  0  0  0  0  0  0  0  0  0
  -12.8374   20.2838   -2.1020 H   0  0  0  0  0  0  0  0  0  0  0  0
  -14.7883   21.5974   -1.4927 H   0  0  0  0  0  0  0  0  0  0  0  0
  -16.3598   20.7263    0.1420 H   0  0  0  0  0  0  0  0  0  0  0  0
   -8.7837   18.3069    6.8106 H   0  0  0  0  0  0  0  0  0  0  0  0
   -6.5220   17.5530    6.3414 H   0  0  0  0  0  0  0  0  0  0  0  0
   -6.1728   15.6462    4.8767 H   0  0  0  0  0  0  0  0  0  0  0  0
   -9.5541   13.2489    5.8412 H   0  0  0  0  0  0  0  0  0  0  0  0
  -10.6586   10.9621    5.7866 H   0  0  0  0  0  0  0  0  0  0  0  0
  -12.7172   13.4305    3.1514 H   0  0  0  0  0  0  0  0  0  0  0  0
  -10.2407   17.8016    3.1230 H   0  0  0  0  0  0  0  0  0  0  0  0
  -12.0707   18.6842    1.5677 H   0  0  0  0  0  0  0  0  0  0  0  0
  -16.4182    9.6358    1.4076 H   0  0  0  0  0  0  0  0  0  0  0  0
  -14.9084    8.8755    3.3306 H   0  0  0  0  0  0  0  0  0  0  0  0
  -12.2606    8.4484    2.9548 H   0  0  0  0  0  0  0  0  0  0  0  0
  -12.0234    6.2851    4.0222 H   0  0  0  0  0  0  0  0  0  0  0  0
   -1.9560    1.2410    1.8117 H   0  0  0  0  0  0  0  0  0  0  0  0
   -1.5620    0.3286    4.5932 H   0  0  0  0  0  0  0  0  0  0  0  0
   -0.7374   -0.2568    3.1683 H   0  0  0  0  0  0  0  0  0  0  0  0
   -2.4611   -0.4875    3.3367 H   0  0  0  0  0  0  0  0  0  0  0  0
  1  2  1  0  0  0  0
  1 79  1  0  0  0  0
  1 80  1  0  0  0  0
  1 81  1  0  0  0  0
  2  3  1  0  0  0  0
  2 82  1  0  0  0  0
  2 83  1  0  0  0  0
  3  4  1  0  0  0  0
  3  5  1  0  0  0  0
  3 84  1  6  0  0  0
  4 85  1  0  0  0  0
  4 86  1  0  0  0  0
  4 87  1  0  0  0  0
  5  6  2  0  0  0  0
  5  7  1  0  0  0  0
  7  8  1  0  0  0  0
  7 77  1  0  0  0  0
  8  9  1  0  0  0  0
  8 88  1  0  0  0  0
  8 89  1  0  0  0  0
  9 10  1  0  0  0  0
  9 90  1  0  0  0  0
  9 91  1  0  0  0  0
 10 77  1  0  0  0  0
 10 11  1  0  0  0  0
 10 92  1  6  0  0  0
 11 12  2  0  0  0  0
 11 13  1  0  0  0  0
 13 14  1  0  0  0  0
 13 93  1  0  0  0  0
 14 15  1  0  0  0  0
 14 94  1  0  0  0  0
 14 95  1  0  0  0  0
 15 16  1  0  0  0  0
 15 96  1  0  0  0  0
 15 97  1  0  0  0  0
 16 17  1  0  0  0  0
 16 98  1  0  0  0  0
 16 99  1  0  0  0  0
 17 18  1  0  0  0  0
 17100  1  0  0  0  0
 17101  1  0  0  0  0
 18 19  1  0  0  0  0
 18102  1  0  0  0  0
 18103  1  0  0  0  0
 19 20  1  0  0  0  0
 19104  1  0  0  0  0
 19105  1  0  0  0  0
 20 21  1  0  0  0  0
 20106  1  0  0  0  0
 21 22  2  0  0  0  0
 21 23  1  0  0  0  0
 23 24  1  0  0  0  0
 23 76  2  0  0  0  0
 24 25  2  0  0  0  0
 24107  1  0  0  0  0
 25 26  1  0  0  0  0
 25108  1  0  0  0  0
 26 27  1  0  0  0  0
 26 75  2  0  0  0  0
 27 28  1  0  0  0  0
 27 69  2  0  0  0  0
 28 29  2  0  0  0  0
 28 74  1  0  0  0  0
 29 30  1  0  0  0  0
 30 31  2  0  0  0  0
 30 73  1  0  0  0  0
 31 32  1  0  0  0  0
 31 40  1  0  0  0  0
 32 33  1  0  0  0  0
 32 38  2  0  0  0  0
 33 34  1  0  0  0  0
 33 35  2  0  0  0  0
 35 36  1  0  0  0  0
 35109  1  0  0  0  0
 36 37  2  0  0  0  0
 36110  1  0  0  0  0
 37 38  1  0  0  0  0
 37111  1  0  0  0  0
 38 39  1  0  0  0  0
 40 41  2  0  0  0  0
 40 44  1  0  0  0  0
 41 42  1  0  0  0  0
 41112  1  0  0  0  0
 42 43  2  0  0  0  0
 42113  1  0  0  0  0
 43 44  1  0  0  0  0
 43 45  1  0  0  0  0
 44114  1  0  0  0  0
 45 46  1  0  0  0  0
 45 54  2  0  0  0  0
 46 47  1  0  0  0  0
 46 52  2  0  0  0  0
 47 48  1  0  0  0  0
 47 49  2  0  0  0  0
 49 50  1  0  0  0  0
 49115  1  0  0  0  0
 50 51  2  0  0  0  0
 50116  1  0  0  0  0
 51 52  1  0  0  0  0
 51117  1  0  0  0  0
 52 53  1  0  0  0  0
 54 55  1  0  0  0  0
 54 72  1  0  0  0  0
 55 56  2  0  0  0  0
 56 57  1  0  0  0  0
 56 71  1  0  0  0  0
 57 58  1  0  0  0  0
 57 66  2  0  0  0  0
 58 59  1  0  0  0  0
 58 64  2  0  0  0  0
 59 60  1  0  0  0  0
 59 61  2  0  0  0  0
 61 62  1  0  0  0  0
 61118  1  0  0  0  0
 62 63  2  0  0  0  0
 62119  1  0  0  0  0
 63 64  1  0  0  0  0
 63120  1  0  0  0  0
 64 65  1  0  0  0  0
 66 67  1  0  0  0  0
 66 70  1  0  0  0  0
 67 68  2  0  0  0  0
 67121  1  0  0  0  0
 68 69  1  0  0  0  0
 68122  1  0  0  0  0
 69 70  1  0  0  0  0
 70123  1  0  0  0  0
 71 72  2  0  0  0  0
 71124  1  0  0  0  0
 72125  1  0  0  0  0
 73 74  2  0  0  0  0
 73126  1  0  0  0  0
 74127  1  0  0  0  0
 75 76  1  0  0  0  0
 75128  1  0  0  0  0
 76129  1  0  0  0  0
 77 78  1  0  0  0  0
 77130  1  6  0  0  0
 78131  1  0  0  0  0
 78132  1  0  0  0  0
 78133  1  0  0  0  0
M  CHG  1   4   1
M  END
$$$$
