1_1_2277
 OpenBabel04152301353D

127137  0  0  0  0  0  0  0  0999 V2000
    2.2401   -0.2774    1.0055 C   0  0  0  0  0  0  0  0  0  0  0  0
    1.0232   -0.8189    1.6929 C   0  0  0  0  0  0  0  0  0  0  0  0
    1.1240   -2.1681    2.0888 C   0  0  0  0  0  0  0  0  0  0  0  0
    0.2483   -2.7104    3.0220 C   0  0  0  0  0  0  0  0  0  0  0  0
   -0.7477   -1.9084    3.5725 C   0  0  0  0  0  0  0  0  0  0  0  0
   -1.4805   -2.3884    4.7070 C   0  0  0  0  0  0  0  0  0  0  0  0
   -2.0214   -2.7871    5.6560 N   0  0  0  0  0  0  0  0  0  0  0  0
   -0.9620   -0.6186    3.0633 C   0  0  0  0  0  0  0  0  0  0  0  0
   -0.1099   -0.0777    2.0760 C   0  0  0  0  0  0  0  0  0  0  0  0
   -0.4393    1.6073    1.5422 S   0  0  0  0  0  0  0  0  0  0  0  0
   -1.6635    2.0267    2.1982 O   0  0  0  0  0  0  0  0  0  0  0  0
    0.7623    2.3929    1.7242 O   0  0  0  0  0  0  0  0  0  0  0  0
   -0.8389    1.6321   -0.1281 N   0  0  0  0  0  0  0  0  0  0  0  0
    0.0340    1.0114   -1.0766 C   0  0  0  0  0  0  0  0  0  0  0  0
   -0.2233   -0.3030   -1.4461 C   0  0  0  0  0  0  0  0  0  0  0  0
    0.6986   -0.9890   -2.2308 C   0  0  0  0  0  0  0  0  0  0  0  0
    1.9205   -0.3864   -2.5513 C   0  0  0  0  0  0  0  0  0  0  0  0
    2.2033    0.9361   -2.1569 C   0  0  0  0  0  0  0  0  0  0  0  0
    3.6325    1.3884   -2.2803 C   0  0  0  0  0  0  0  0  0  0  0  0
    4.4056    0.7207   -2.9706 O   0  0  0  0  0  0  0  0  0  0  0  0
    4.1779    2.4491   -1.5858 N   0  0  0  0  0  0  0  0  0  0  0  0
    3.5643    3.4887   -0.7838 C   0  0  0  0  0  0  0  0  0  0  0  0
    4.4284    4.0974    0.3113 C   0  0  0  0  0  0  0  0  0  0  0  0
    5.7004    4.8041   -0.1196 C   0  0  0  0  0  0  0  0  0  0  0  0
    5.5434    5.8177   -1.2416 C   0  0  0  0  0  0  0  0  0  0  0  0
    4.6450    6.9247   -0.9273 N   0  0  0  0  0  0  0  0  0  0  0  0
    4.8952    8.2801   -0.8777 C   0  0  0  0  0  0  0  0  0  0  0  0
    4.0240    9.0620   -0.5124 O   0  0  0  0  0  0  0  0  0  0  0  0
    6.2447    8.7788   -1.2148 C   0  0  0  0  0  0  0  0  0  0  0  0
    6.9060    8.2939   -2.3406 C   0  0  0  0  0  0  0  0  0  0  0  0
    8.2788    8.4622   -2.4437 C   0  0  0  0  0  0  0  0  0  0  0  0
    8.9727    9.2761   -1.5333 C   0  0  0  0  0  0  0  0  0  0  0  0
   10.4509    9.3982   -1.6472 C   0  0  0  0  0  0  0  0  0  0  0  0
   11.3571    8.9618   -0.5240 C   0  0  0  0  0  0  0  0  0  0  0  0
   12.6665    8.9815   -0.4616 N   0  0  0  0  0  0  0  0  0  0  0  0
   12.9983    8.5031    0.8013 C   0  0  0  0  0  0  0  0  0  0  0  0
   14.2264    8.2965    1.3392 C   0  0  0  0  0  0  0  0  0  0  0  0
   14.2836    7.8023    2.7605 C   0  0  0  0  0  0  0  0  0  0  0  0
   14.7862    8.6243    3.7787 C   0  0  0  0  0  0  0  0  0  0  0  0
   15.2417    9.8549    3.4996 F   0  0  0  0  0  0  0  0  0  0  0  0
   14.8326    8.2011    5.1085 C   0  0  0  0  0  0  0  0  0  0  0  0
   14.3487    6.9423    5.4559 C   0  0  0  0  0  0  0  0  0  0  0  0
   13.8500    6.1026    4.4624 C   0  0  0  0  0  0  0  0  0  0  0  0
   13.8425    6.5237    3.1302 C   0  0  0  0  0  0  0  0  0  0  0  0
   13.3440    5.6834    2.2103 F   0  0  0  0  0  0  0  0  0  0  0  0
   15.4663    8.5642    0.6535 C   0  0  0  0  0  0  0  0  0  0  0  0
   16.7616    8.3680    1.1016 C   0  0  0  0  0  0  0  0  0  0  0  0
   17.6414    8.8584    0.1300 C   0  0  0  0  0  0  0  0  0  0  0  0
   16.8985    9.2871   -0.9577 C   0  0  0  0  0  0  0  0  0  0  0  0
   15.5656    9.1032   -0.6214 N   0  0  0  0  0  0  0  0  0  0  0  0
   17.3668    9.8267   -2.2105 C   0  0  0  0  0  0  0  0  0  0  0  0
   18.8489    9.9687   -2.4187 C   0  0  0  0  0  0  0  0  0  0  0  0
   19.6670    8.8344   -2.5058 C   0  0  0  0  0  0  0  0  0  0  0  0
   19.1427    7.6046   -2.3934 F   0  0  0  0  0  0  0  0  0  0  0  0
   21.0441    8.9388   -2.7059 C   0  0  0  0  0  0  0  0  0  0  0  0
   21.6327   10.1925   -2.8535 C   0  0  0  0  0  0  0  0  0  0  0  0
   20.8407   11.3360   -2.7733 C   0  0  0  0  0  0  0  0  0  0  0  0
   19.4697   11.2198   -2.5355 C   0  0  0  0  0  0  0  0  0  0  0  0
   18.7448   12.3475   -2.4765 F   0  0  0  0  0  0  0  0  0  0  0  0
   16.5653   10.1812   -3.2454 C   0  0  0  0  0  0  0  0  0  0  0  0
   15.1809   10.1219   -3.3388 N   0  0  0  0  0  0  0  0  0  0  0  0
   14.8821   10.5938   -4.5244 C   0  0  0  0  0  0  0  0  0  0  0  0
   13.5393   10.7413   -5.1784 C   0  0  0  0  0  0  0  0  0  0  0  0
   13.4241   11.2281   -6.5761 C   0  0  0  0  0  0  0  0  0  0  0  0
   12.8414   12.4657   -6.8768 C   0  0  0  0  0  0  0  0  0  0  0  0
   12.3427   13.2365   -5.8989 F   0  0  0  0  0  0  0  0  0  0  0  0
   12.7447   12.9286   -8.1888 C   0  0  0  0  0  0  0  0  0  0  0  0
   13.2647   12.1674   -9.2333 C   0  0  0  0  0  0  0  0  0  0  0  0
   13.8564   10.9359   -8.9584 C   0  0  0  0  0  0  0  0  0  0  0  0
   13.9157   10.4702   -7.6446 C   0  0  0  0  0  0  0  0  0  0  0  0
   14.4987    9.2836   -7.4187 F   0  0  0  0  0  0  0  0  0  0  0  0
   12.4337   10.4398   -4.4753 C   0  0  0  0  0  0  0  0  0  0  0  0
   11.0683   10.5672   -4.9683 C   0  0  0  0  0  0  0  0  0  0  0  0
   10.2198   10.2712   -3.9747 C   0  0  0  0  0  0  0  0  0  0  0  0
   10.9844    9.8459   -2.8000 C   0  0  0  0  0  0  0  0  0  0  0  0
   12.2916    9.9915   -3.1854 N   0  0  0  0  0  0  0  0  0  0  0  0
   16.0424   11.0331   -5.3094 C   0  0  0  0  0  0  0  0  0  0  0  0
   17.0446   10.7130   -4.5049 C   0  0  0  0  0  0  0  0  0  0  0  0
   11.7514    8.2372    1.4862 C   0  0  0  0  0  0  0  0  0  0  0  0
   10.7118    8.4413    0.6907 C   0  0  0  0  0  0  0  0  0  0  0  0
    8.2491    9.9341   -0.5262 C   0  0  0  0  0  0  0  0  0  0  0  0
    6.8921    9.6548   -0.3402 C   0  0  0  0  0  0  0  0  0  0  0  0
    1.1808    1.6632   -1.5386 C   0  0  0  0  0  0  0  0  0  0  0  0
    2.9384   -1.0709    0.8389 H   0  0  0  0  0  0  0  0  0  0  0  0
    2.6926    0.4728    1.6198 H   0  0  0  0  0  0  0  0  0  0  0  0
    1.9581    0.1524    0.0671 H   0  0  0  0  0  0  0  0  0  0  0  0
    1.8606   -2.7633    1.6787 H   0  0  0  0  0  0  0  0  0  0  0  0
    0.3356   -3.6991    3.3044 H   0  0  0  0  0  0  0  0  0  0  0  0
   -1.7534   -0.0576    3.4153 H   0  0  0  0  0  0  0  0  0  0  0  0
   -1.6657    2.0719   -0.4317 H   0  0  0  0  0  0  0  0  0  0  0  0
   -1.0927   -0.7676   -1.1405 H   0  0  0  0  0  0  0  0  0  0  0  0
    0.4824   -1.9376   -2.5748 H   0  0  0  0  0  0  0  0  0  0  0  0
    2.6252   -0.9191   -3.0848 H   0  0  0  0  0  0  0  0  0  0  0  0
    5.1586    2.5105   -1.6459 H   0  0  0  0  0  0  0  0  0  0  0  0
    2.6958    3.0712   -0.3188 H   0  0  0  0  0  0  0  0  0  0  0  0
    3.3612    4.2896   -1.4637 H   0  0  0  0  0  0  0  0  0  0  0  0
    4.7088    3.3074    0.9762 H   0  0  0  0  0  0  0  0  0  0  0  0
    3.8217    4.8638    0.7466 H   0  0  0  0  0  0  0  0  0  0  0  0
    6.3965    4.0592   -0.4445 H   0  0  0  0  0  0  0  0  0  0  0  0
    6.0278    5.3613    0.7332 H   0  0  0  0  0  0  0  0  0  0  0  0
    5.1610    5.3092   -2.1019 H   0  0  0  0  0  0  0  0  0  0  0  0
    6.5105    6.2445   -1.4077 H   0  0  0  0  0  0  0  0  0  0  0  0
    3.7189    6.6638   -0.7189 H   0  0  0  0  0  0  0  0  0  0  0  0
    6.3809    7.8152   -3.0890 H   0  0  0  0  0  0  0  0  0  0  0  0
    8.7962    7.9841   -3.1978 H   0  0  0  0  0  0  0  0  0  0  0  0
   15.2255    8.8211    5.8339 H   0  0  0  0  0  0  0  0  0  0  0  0
   14.3594    6.6342    6.4408 H   0  0  0  0  0  0  0  0  0  0  0  0
   13.4860    5.1693    4.7105 H   0  0  0  0  0  0  0  0  0  0  0  0
   17.0319    7.9345    1.9983 H   0  0  0  0  0  0  0  0  0  0  0  0
   18.6696    8.8945    0.2103 H   0  0  0  0  0  0  0  0  0  0  0  0
   14.8016    9.3229   -1.2022 H   0  0  0  0  0  0  0  0  0  0  0  0
   21.6261    8.0875   -2.7445 H   0  0  0  0  0  0  0  0  0  0  0  0
   22.6478   10.2738   -3.0210 H   0  0  0  0  0  0  0  0  0  0  0  0
   21.2672   12.2685   -2.8896 H   0  0  0  0  0  0  0  0  0  0  0  0
   12.2888   13.8333   -8.3855 H   0  0  0  0  0  0  0  0  0  0  0  0
   13.2121   12.5132  -10.2042 H   0  0  0  0  0  0  0  0  0  0  0  0
   14.2502   10.3692   -9.7257 H   0  0  0  0  0  0  0  0  0  0  0  0
   10.7990   10.8407   -5.9263 H   0  0  0  0  0  0  0  0  0  0  0  0
    9.1911   10.3330   -4.0284 H   0  0  0  0  0  0  0  0  0  0  0  0
   13.0542    9.7939   -2.5949 H   0  0  0  0  0  0  0  0  0  0  0  0
   16.0698   11.4747   -6.2418 H   0  0  0  0  0  0  0  0  0  0  0  0
   18.0417   10.8280   -4.7450 H   0  0  0  0  0  0  0  0  0  0  0  0
   11.6811    7.9282    2.4683 H   0  0  0  0  0  0  0  0  0  0  0  0
    9.7097    8.2776    0.8754 H   0  0  0  0  0  0  0  0  0  0  0  0
    8.7200   10.6255    0.0781 H   0  0  0  0  0  0  0  0  0  0  0  0
    6.3727   10.0922    0.4370 H   0  0  0  0  0  0  0  0  0  0  0  0
    1.2735    2.6845   -1.4231 H   0  0  0  0  0  0  0  0  0  0  0  0
  1  2  1  0  0  0  0
  1 84  1  0  0  0  0
  1 85  1  0  0  0  0
  1 86  1  0  0  0  0
  2  3  1  0  0  0  0
  2  9  2  0  0  0  0
  3  4  2  0  0  0  0
  3 87  1  0  0  0  0
  4  5  1  0  0  0  0
  4 88  1  0  0  0  0
  5  6  1  0  0  0  0
  5  8  2  0  0  0  0
  6  7  3  0  0  0  0
  8  9  1  0  0  0  0
  8 89  1  0  0  0  0
  9 10  1  0  0  0  0
 10 11  2  0  0  0  0
 10 12  2  0  0  0  0
 10 13  1  0  0  0  0
 13 14  1  0  0  0  0
 13 90  1  0  0  0  0
 14 15  1  0  0  0  0
 14 83  2  0  0  0  0
 15 16  2  0  0  0  0
 15 91  1  0  0  0  0
 16 17  1  0  0  0  0
 16 92  1  0  0  0  0
 17 18  2  0  0  0  0
 17 93  1  0  0  0  0
 18 19  1  0  0  0  0
 18 83  1  0  0  0  0
 19 20  2  0  0  0  0
 19 21  1  0  0  0  0
 21 22  1  0  0  0  0
 21 94  1  0  0  0  0
 22 23  1  0  0  0  0
 22 95  1  0  0  0  0
 22 96  1  0  0  0  0
 23 24  1  0  0  0  0
 23 97  1  0  0  0  0
 23 98  1  0  0  0  0
 24 25  1  0  0  0  0
 24 99  1  0  0  0  0
 24100  1  0  0  0  0
 25 26  1  0  0  0  0
 25101  1  0  0  0  0
 25102  1  0  0  0  0
 26 27  1  0  0  0  0
 26103  1  0  0  0  0
 27 28  2  0  0  0  0
 27 29  1  0  0  0  0
 29 30  1  0  0  0  0
 29 82  2  0  0  0  0
 30 31  2  0  0  0  0
 30104  1  0  0  0  0
 31 32  1  0  0  0  0
 31105  1  0  0  0  0
 32 33  1  0  0  0  0
 32 81  2  0  0  0  0
 33 34  1  0  0  0  0
 33 75  2  0  0  0  0
 34 35  2  0  0  0  0
 34 80  1  0  0  0  0
 35 36  1  0  0  0  0
 36 37  2  0  0  0  0
 36 79  1  0  0  0  0
 37 38  1  0  0  0  0
 37 46  1  0  0  0  0
 38 39  1  0  0  0  0
 38 44  2  0  0  0  0
 39 40  1  0  0  0  0
 39 41  2  0  0  0  0
 41 42  1  0  0  0  0
 41106  1  0  0  0  0
 42 43  2  0  0  0  0
 42107  1  0  0  0  0
 43 44  1  0  0  0  0
 43108  1  0  0  0  0
 44 45  1  0  0  0  0
 46 47  2  0  0  0  0
 46 50  1  0  0  0  0
 47 48  1  0  0  0  0
 47109  1  0  0  0  0
 48 49  2  0  0  0  0
 48110  1  0  0  0  0
 49 50  1  0  0  0  0
 49 51  1  0  0  0  0
 50111  1  0  0  0  0
 51 52  1  0  0  0  0
 51 60  2  0  0  0  0
 52 53  1  0  0  0  0
 52 58  2  0  0  0  0
 53 54  1  0  0  0  0
 53 55  2  0  0  0  0
 55 56  1  0  0  0  0
 55112  1  0  0  0  0
 56 57  2  0  0  0  0
 56113  1  0  0  0  0
 57 58  1  0  0  0  0
 57114  1  0  0  0  0
 58 59  1  0  0  0  0
 60 61  1  0  0  0  0
 60 78  1  0  0  0  0
 61 62  2  0  0  0  0
 62 63  1  0  0  0  0
 62 77  1  0  0  0  0
 63 64  1  0  0  0  0
 63 72  2  0  0  0  0
 64 65  1  0  0  0  0
 64 70  2  0  0  0  0
 65 66  1  0  0  0  0
 65 67  2  0  0  0  0
 67 68  1  0  0  0  0
 67115  1  0  0  0  0
 68 69  2  0  0  0  0
 68116  1  0  0  0  0
 69 70  1  0  0  0  0
 69117  1  0  0  0  0
 70 71  1  0  0  0  0
 72 73  1  0  0  0  0
 72 76  1  0  0  0  0
 73 74  2  0  0  0  0
 73118  1  0  0  0  0
 74 75  1  0  0  0  0
 74119  1  0  0  0  0
 75 76  1  0  0  0  0
 76120  1  0  0  0  0
 77 78  2  0  0  0  0
 77121  1  0  0  0  0
 78122  1  0  0  0  0
 79 80  2  0  0  0  0
 79123  1  0  0  0  0
 80124  1  0  0  0  0
 81 82  1  0  0  0  0
 81125  1  0  0  0  0
 82126  1  0  0  0  0
 83127  1  0  0  0  0
M  END
$$$$
