1_1_6903
 OpenBabel04152301373D

137148  0  0  1  0  0  0  0  0999 V2000
    0.2013   -0.1057   -0.7858 C   0  0  0  0  0  0  0  0  0  0  0  0
   -0.1797   -1.5707   -0.9654 C   0  0  0  0  0  0  0  0  0  0  0  0
    0.5635   -2.5007   -0.0445 C   0  0  0  0  0  0  0  0  0  0  0  0
    1.7779   -2.3103    0.5798 C   0  0  0  0  0  0  0  0  0  0  0  0
    2.2393   -3.4906    1.2172 C   0  0  0  0  0  0  0  0  0  0  0  0
    1.3102   -4.5092    1.2207 C   0  0  0  0  0  0  0  0  0  0  0  0
    1.3432   -6.1511    1.9357 S   0  0  0  0  0  0  0  0  0  0  0  0
   -0.0402   -6.5219    2.1479 O   0  0  0  0  0  0  0  0  0  0  0  0
    2.2115   -6.8980    1.0533 O   0  0  0  0  0  0  0  0  0  0  0  0
    2.0854   -6.0723    3.4551 N   0  0  0  0  0  0  0  0  0  0  0  0
    3.5326   -5.9955    3.6216 C   0  0  0  0  0  0  0  0  0  0  0  0
    4.0165   -4.6220    4.0941 C   0  0  0  0  0  0  0  0  0  0  0  0
    3.0078   -3.6636    4.8220 C   0  0  0  0  0  0  0  0  0  0  0  0
    1.5387   -4.1252    4.7493 C   0  0  0  0  0  0  0  0  0  0  0  0
    1.3438   -5.6154    4.6203 C   0  0  0  0  0  0  0  0  0  0  0  0
    3.1587   -2.3526    4.1940 N   0  0  0  0  0  0  0  0  0  0  0  0
    4.1078   -1.5514    4.7893 C   0  0  0  0  0  0  0  0  0  0  0  0
    4.4940   -0.4862    4.3450 O   0  0  0  0  0  0  0  0  0  0  0  0
    4.5327   -2.1971    6.0757 C   0  0  0  0  0  0  0  0  0  0  0  0
    3.5123   -3.3318    6.2502 C   0  0  1  0  0  0  0  0  0  0  0  0
    2.4875   -3.0279    7.3462 C   0  0  0  0  0  0  0  0  0  0  0  0
    2.4432   -3.7763    8.3307 O   0  0  0  0  0  0  0  0  0  0  0  0
    1.5914   -2.0098    7.3377 N   0  0  0  0  0  0  0  0  0  0  0  0
    1.2975   -0.9230    6.4174 C   0  0  0  0  0  0  0  0  0  0  0  0
    0.0172   -1.1323    5.6047 C   0  0  0  0  0  0  0  0  0  0  0  0
   -1.2714   -1.1014    6.4210 C   0  0  0  0  0  0  0  0  0  0  0  0
   -1.4892    0.1949    7.1828 C   0  0  0  0  0  0  0  0  0  0  0  0
   -1.4345    1.3750    6.3302 N   0  0  0  0  0  0  0  0  0  0  0  0
   -2.1800    2.5243    6.4203 C   0  0  0  0  0  0  0  0  0  0  0  0
   -2.1072    3.3917    5.5583 O   0  0  0  0  0  0  0  0  0  0  0  0
   -3.1037    2.6722    7.5586 C   0  0  0  0  0  0  0  0  0  0  0  0
   -4.4365    3.0010    7.3097 C   0  0  0  0  0  0  0  0  0  0  0  0
   -5.3491    2.9864    8.3630 C   0  0  0  0  0  0  0  0  0  0  0  0
   -4.9379    2.5938    9.6475 C   0  0  0  0  0  0  0  0  0  0  0  0
   -5.9016    2.4936   10.7680 C   0  0  0  0  0  0  0  0  0  0  0  0
   -5.7324    3.3680   11.9773 C   0  0  0  0  0  0  0  0  0  0  0  0
   -6.4138    3.3756   13.0935 N   0  0  0  0  0  0  0  0  0  0  0  0
   -5.7981    4.3218   13.9018 C   0  0  0  0  0  0  0  0  0  0  0  0
   -6.1671    4.7503   15.1315 C   0  0  0  0  0  0  0  0  0  0  0  0
   -5.3008    5.7848   15.7888 C   0  0  0  0  0  0  0  0  0  0  0  0
   -5.2212    7.1001   15.3109 C   0  0  0  0  0  0  0  0  0  0  0  0
   -5.9138    7.4715   14.2233 F   0  0  0  0  0  0  0  0  0  0  0  0
   -4.3878    8.0463   15.9097 C   0  0  0  0  0  0  0  0  0  0  0  0
   -3.6402    7.7018   17.0337 C   0  0  0  0  0  0  0  0  0  0  0  0
   -3.7246    6.4080   17.5442 C   0  0  0  0  0  0  0  0  0  0  0  0
   -4.5387    5.4623   16.9185 C   0  0  0  0  0  0  0  0  0  0  0  0
   -4.5703    4.2231   17.4314 F   0  0  0  0  0  0  0  0  0  0  0  0
   -7.3297    4.2743   15.8314 C   0  0  0  0  0  0  0  0  0  0  0  0
   -7.8505    4.7122   17.0355 C   0  0  0  0  0  0  0  0  0  0  0  0
   -8.9619    3.9198   17.3425 C   0  0  0  0  0  0  0  0  0  0  0  0
   -9.1606    3.0201   16.3068 C   0  0  0  0  0  0  0  0  0  0  0  0
   -8.1506    3.2479   15.3875 N   0  0  0  0  0  0  0  0  0  0  0  0
  -10.1948    2.0260   16.1672 C   0  0  0  0  0  0  0  0  0  0  0  0
  -11.2103    1.9178   17.2656 C   0  0  0  0  0  0  0  0  0  0  0  0
  -11.2191    0.8390   18.1582 C   0  0  0  0  0  0  0  0  0  0  0  0
  -10.3429   -0.1672   18.0177 F   0  0  0  0  0  0  0  0  0  0  0  0
  -12.1504    0.7596   19.1946 C   0  0  0  0  0  0  0  0  0  0  0  0
  -13.0792    1.7831   19.3759 C   0  0  0  0  0  0  0  0  0  0  0  0
  -13.0793    2.8731   18.5079 C   0  0  0  0  0  0  0  0  0  0  0  0
  -12.1602    2.9286   17.4600 C   0  0  0  0  0  0  0  0  0  0  0  0
  -12.1988    3.9934   16.6449 F   0  0  0  0  0  0  0  0  0  0  0  0
  -10.3357    1.1902   15.1091 C   0  0  0  0  0  0  0  0  0  0  0  0
   -9.5573    1.0914   13.9637 N   0  0  0  0  0  0  0  0  0  0  0  0
  -10.0882    0.1281   13.2496 C   0  0  0  0  0  0  0  0  0  0  0  0
   -9.6670   -0.3941   11.9053 C   0  0  0  0  0  0  0  0  0  0  0  0
  -10.3819   -1.5238   11.2619 C   0  0  0  0  0  0  0  0  0  0  0  0
  -11.6713   -1.3614   10.7432 C   0  0  0  0  0  0  0  0  0  0  0  0
  -12.2994   -0.1817   10.8543 F   0  0  0  0  0  0  0  0  0  0  0  0
  -12.3487   -2.4140   10.1255 C   0  0  0  0  0  0  0  0  0  0  0  0
  -11.7305   -3.6561    9.9937 C   0  0  0  0  0  0  0  0  0  0  0  0
  -10.4424   -3.8387   10.4932 C   0  0  0  0  0  0  0  0  0  0  0  0
   -9.7858   -2.7834   11.1284 C   0  0  0  0  0  0  0  0  0  0  0  0
   -8.5470   -2.9990   11.5947 F   0  0  0  0  0  0  0  0  0  0  0  0
   -8.6392    0.1953   11.2665 C   0  0  0  0  0  0  0  0  0  0  0  0
   -8.1284   -0.1855    9.9535 C   0  0  0  0  0  0  0  0  0  0  0  0
   -7.0802    0.5960    9.6489 C   0  0  0  0  0  0  0  0  0  0  0  0
   -6.8665    1.5551   10.7348 C   0  0  0  0  0  0  0  0  0  0  0  0
   -7.8381    1.2424   11.6505 N   0  0  0  0  0  0  0  0  0  0  0  0
  -11.2563   -0.5089   13.8723 C   0  0  0  0  0  0  0  0  0  0  0  0
  -11.3854    0.1988   14.9861 C   0  0  0  0  0  0  0  0  0  0  0  0
   -4.6558    4.8258   13.1726 C   0  0  0  0  0  0  0  0  0  0  0  0
   -4.6223    4.3341   11.9441 C   0  0  0  0  0  0  0  0  0  0  0  0
   -3.5875    2.2951    9.8826 C   0  0  0  0  0  0  0  0  0  0  0  0
   -2.6620    2.3994    8.8556 C   0  0  0  0  0  0  0  0  0  0  0  0
   -0.0577   -4.0717    0.2847 S   0  0  0  0  0  0  0  0  0  0  0  0
   -0.3621    0.4956   -1.4683 H   0  0  0  0  0  0  0  0  0  0  0  0
    1.2462    0.0176   -0.9806 H   0  0  0  0  0  0  0  0  0  0  0  0
   -0.0127    0.1981    0.2176 H   0  0  0  0  0  0  0  0  0  0  0  0
    0.0309   -1.8542   -1.9754 H   0  0  0  0  0  0  0  0  0  0  0  0
   -1.2196   -1.6572   -0.7285 H   0  0  0  0  0  0  0  0  0  0  0  0
    2.2908   -1.4148    0.5830 H   0  0  0  0  0  0  0  0  0  0  0  0
    3.1780   -3.5782    1.6370 H   0  0  0  0  0  0  0  0  0  0  0  0
    3.9945   -6.2132    2.6813 H   0  0  0  0  0  0  0  0  0  0  0  0
    3.8024   -6.7034    4.3772 H   0  0  0  0  0  0  0  0  0  0  0  0
    4.3737   -4.1020    3.2299 H   0  0  0  0  0  0  0  0  0  0  0  0
    4.7389   -4.8524    4.8491 H   0  0  0  0  0  0  0  0  0  0  0  0
    1.0852   -3.6566    3.9010 H   0  0  0  0  0  0  0  0  0  0  0  0
    1.0910   -3.8447    5.6798 H   0  0  0  0  0  0  0  0  0  0  0  0
    1.7102   -6.1058    5.4979 H   0  0  0  0  0  0  0  0  0  0  0  0
    0.3043   -5.8437    4.5094 H   0  0  0  0  0  0  0  0  0  0  0  0
    2.6290   -2.0675    3.4147 H   0  0  0  0  0  0  0  0  0  0  0  0
    4.4793   -1.5041    6.8892 H   0  0  0  0  0  0  0  0  0  0  0  0
    5.5456   -2.5415    6.0587 H   0  0  0  0  0  0  0  0  0  0  0  0
    3.9250   -4.2352    6.6483 H   0  0  0  0  0  0  0  0  0  0  0  0
    1.0100   -2.0057    8.1322 H   0  0  0  0  0  0  0  0  0  0  0  0
    2.1174   -0.8260    5.7367 H   0  0  0  0  0  0  0  0  0  0  0  0
    1.1512   -0.0437    7.0093 H   0  0  0  0  0  0  0  0  0  0  0  0
    0.0820   -2.0845    5.1210 H   0  0  0  0  0  0  0  0  0  0  0  0
   -0.0412   -0.3132    4.9187 H   0  0  0  0  0  0  0  0  0  0  0  0
   -1.2422   -1.9054    7.1264 H   0  0  0  0  0  0  0  0  0  0  0  0
   -2.0802   -1.1920    5.7264 H   0  0  0  0  0  0  0  0  0  0  0  0
   -0.7305    0.2809    7.9324 H   0  0  0  0  0  0  0  0  0  0  0  0
   -2.4701    0.1539    7.6083 H   0  0  0  0  0  0  0  0  0  0  0  0
   -0.7795    1.3444    5.5959 H   0  0  0  0  0  0  0  0  0  0  0  0
   -4.7431    3.2521    6.3568 H   0  0  0  0  0  0  0  0  0  0  0  0
   -6.3292    3.2647    8.1988 H   0  0  0  0  0  0  0  0  0  0  0  0
   -4.3255    9.0000   15.5203 H   0  0  0  0  0  0  0  0  0  0  0  0
   -3.0284    8.3997   17.4849 H   0  0  0  0  0  0  0  0  0  0  0  0
   -3.1852    6.1489   18.3850 H   0  0  0  0  0  0  0  0  0  0  0  0
   -7.4832    5.4884   17.6079 H   0  0  0  0  0  0  0  0  0  0  0  0
   -9.5370    3.9928   18.1963 H   0  0  0  0  0  0  0  0  0  0  0  0
   -8.0325    2.7545   14.5438 H   0  0  0  0  0  0  0  0  0  0  0  0
  -12.1514   -0.0564   19.8264 H   0  0  0  0  0  0  0  0  0  0  0  0
  -13.7623    1.7339   20.1479 H   0  0  0  0  0  0  0  0  0  0  0  0
  -13.7587    3.6386   18.6401 H   0  0  0  0  0  0  0  0  0  0  0  0
  -13.3060   -2.2727    9.7669 H   0  0  0  0  0  0  0  0  0  0  0  0
  -12.2231   -4.4351    9.5295 H   0  0  0  0  0  0  0  0  0  0  0  0
   -9.9745   -4.7531   10.3936 H   0  0  0  0  0  0  0  0  0  0  0  0
   -8.5112   -0.9346    9.3557 H   0  0  0  0  0  0  0  0  0  0  0  0
   -6.5155    0.5313    8.7875 H   0  0  0  0  0  0  0  0  0  0  0  0
   -7.9506    1.7230   12.5023 H   0  0  0  0  0  0  0  0  0  0  0  0
  -11.8263   -1.2992   13.5324 H   0  0  0  0  0  0  0  0  0  0  0  0
  -12.1385    0.0610   15.6781 H   0  0  0  0  0  0  0  0  0  0  0  0
   -3.9590    5.4819   13.5587 H   0  0  0  0  0  0  0  0  0  0  0  0
   -3.9849    4.5671   11.1667 H   0  0  0  0  0  0  0  0  0  0  0  0
   -3.2823    1.9970   10.8223 H   0  0  0  0  0  0  0  0  0  0  0  0
   -1.6555    2.2766    9.0476 H   0  0  0  0  0  0  0  0  0  0  0  0
  1  2  1  0  0  0  0
  1 86  1  0  0  0  0
  1 87  1  0  0  0  0
  1 88  1  0  0  0  0
  2  3  1  0  0  0  0
  2 89  1  0  0  0  0
  2 90  1  0  0  0  0
  3  4  2  0  0  0  0
  3 85  1  0  0  0  0
  4  5  1  0  0  0  0
  4 91  1  0  0  0  0
  5  6  2  0  0  0  0
  5 92  1  0  0  0  0
  6  7  1  0  0  0  0
  6 85  1  0  0  0  0
  7  8  2  0  0  0  0
  7  9  2  0  0  0  0
  7 10  1  0  0  0  0
 10 11  1  0  0  0  0
 10 15  1  0  0  0  0
 11 12  1  0  0  0  0
 11 93  1  0  0  0  0
 11 94  1  0  0  0  0
 12 13  1  0  0  0  0
 12 95  1  0  0  0  0
 12 96  1  0  0  0  0
 13 14  1  0  0  0  0
 13 16  1  0  0  0  0
 13 20  1  0  0  0  0
 14 15  1  0  0  0  0
 14 97  1  0  0  0  0
 14 98  1  0  0  0  0
 15 99  1  0  0  0  0
 15100  1  0  0  0  0
 16 17  1  0  0  0  0
 16101  1  0  0  0  0
 17 18  2  0  0  0  0
 17 19  1  0  0  0  0
 19 20  1  0  0  0  0
 19102  1  0  0  0  0
 19103  1  0  0  0  0
 20 21  1  0  0  0  0
 20104  1  1  0  0  0
 21 22  2  0  0  0  0
 21 23  1  0  0  0  0
 23 24  1  0  0  0  0
 23105  1  0  0  0  0
 24 25  1  0  0  0  0
 24106  1  0  0  0  0
 24107  1  0  0  0  0
 25 26  1  0  0  0  0
 25108  1  0  0  0  0
 25109  1  0  0  0  0
 26 27  1  0  0  0  0
 26110  1  0  0  0  0
 26111  1  0  0  0  0
 27 28  1  0  0  0  0
 27112  1  0  0  0  0
 27113  1  0  0  0  0
 28 29  1  0  0  0  0
 28114  1  0  0  0  0
 29 30  2  0  0  0  0
 29 31  1  0  0  0  0
 31 32  1  0  0  0  0
 31 84  2  0  0  0  0
 32 33  2  0  0  0  0
 32115  1  0  0  0  0
 33 34  1  0  0  0  0
 33116  1  0  0  0  0
 34 35  1  0  0  0  0
 34 83  2  0  0  0  0
 35 36  1  0  0  0  0
 35 77  2  0  0  0  0
 36 37  2  0  0  0  0
 36 82  1  0  0  0  0
 37 38  1  0  0  0  0
 38 39  2  0  0  0  0
 38 81  1  0  0  0  0
 39 40  1  0  0  0  0
 39 48  1  0  0  0  0
 40 41  1  0  0  0  0
 40 46  2  0  0  0  0
 41 42  1  0  0  0  0
 41 43  2  0  0  0  0
 43 44  1  0  0  0  0
 43117  1  0  0  0  0
 44 45  2  0  0  0  0
 44118  1  0  0  0  0
 45 46  1  0  0  0  0
 45119  1  0  0  0  0
 46 47  1  0  0  0  0
 48 49  2  0  0  0  0
 48 52  1  0  0  0  0
 49 50  1  0  0  0  0
 49120  1  0  0  0  0
 50 51  2  0  0  0  0
 50121  1  0  0  0  0
 51 52  1  0  0  0  0
 51 53  1  0  0  0  0
 52122  1  0  0  0  0
 53 54  1  0  0  0  0
 53 62  2  0  0  0  0
 54 55  1  0  0  0  0
 54 60  2  0  0  0  0
 55 56  1  0  0  0  0
 55 57  2  0  0  0  0
 57 58  1  0  0  0  0
 57123  1  0  0  0  0
 58 59  2  0  0  0  0
 58124  1  0  0  0  0
 59 60  1  0  0  0  0
 59125  1  0  0  0  0
 60 61  1  0  0  0  0
 62 63  1  0  0  0  0
 62 80  1  0  0  0  0
 63 64  2  0  0  0  0
 64 65  1  0  0  0  0
 64 79  1  0  0  0  0
 65 66  1  0  0  0  0
 65 74  2  0  0  0  0
 66 67  1  0  0  0  0
 66 72  2  0  0  0  0
 67 68  1  0  0  0  0
 67 69  2  0  0  0  0
 69 70  1  0  0  0  0
 69126  1  0  0  0  0
 70 71  2  0  0  0  0
 70127  1  0  0  0  0
 71 72  1  0  0  0  0
 71128  1  0  0  0  0
 72 73  1  0  0  0  0
 74 75  1  0  0  0  0
 74 78  1  0  0  0  0
 75 76  2  0  0  0  0
 75129  1  0  0  0  0
 76 77  1  0  0  0  0
 76130  1  0  0  0  0
 77 78  1  0  0  0  0
 78131  1  0  0  0  0
 79 80  2  0  0  0  0
 79132  1  0  0  0  0
 80133  1  0  0  0  0
 81 82  2  0  0  0  0
 81134  1  0  0  0  0
 82135  1  0  0  0  0
 83 84  1  0  0  0  0
 83136  1  0  0  0  0
 84137  1  0  0  0  0
M  END
$$$$
