1_1_2997
 OpenBabel04152301363D

124134  0  0  0  0  0  0  0  0999 V2000
    1.6648    1.4897    0.0445 C   0  0  0  0  0  0  0  0  0  0  0  0
    0.9517    1.8090   -1.1508 O   0  0  0  0  0  0  0  0  0  0  0  0
    1.1374    3.0771   -1.5860 C   0  0  0  0  0  0  0  0  0  0  0  0
    1.7871    3.9644   -1.0621 O   0  0  0  0  0  0  0  0  0  0  0  0
    0.5323    3.1878   -2.9164 C   0  0  0  0  0  0  0  0  0  0  0  0
   -0.8533    3.1617   -3.0760 C   0  0  0  0  0  0  0  0  0  0  0  0
   -1.3698    3.2480   -4.3598 C   0  0  0  0  0  0  0  0  0  0  0  0
   -2.6943    3.1974   -4.5477 F   0  0  0  0  0  0  0  0  0  0  0  0
   -0.5314    3.3237   -5.4700 C   0  0  0  0  0  0  0  0  0  0  0  0
    0.8687    3.2869   -5.3170 C   0  0  0  0  0  0  0  0  0  0  0  0
    1.7427    3.2199   -6.4961 C   0  0  0  0  0  0  0  0  0  0  0  0
    1.7033    4.3174   -7.3893 C   0  0  0  0  0  0  0  0  0  0  0  0
    2.5290    4.3874   -8.5115 C   0  0  0  0  0  0  0  0  0  0  0  0
    3.4212    3.3586   -8.7715 C   0  0  0  0  0  0  0  0  0  0  0  0
    3.4733    2.2576   -7.9153 C   0  0  0  0  0  0  0  0  0  0  0  0
    2.6337    2.1578   -6.7829 C   0  0  0  0  0  0  0  0  0  0  0  0
    2.8912    0.9374   -5.9519 C   0  0  0  0  0  0  0  0  0  0  0  0
    4.0635    0.6302   -5.7240 O   0  0  0  0  0  0  0  0  0  0  0  0
    1.9152    0.0829   -5.4896 N   0  0  0  0  0  0  0  0  0  0  0  0
    0.4804    0.2265   -5.4936 C   0  0  0  0  0  0  0  0  0  0  0  0
   -0.3288   -1.0622   -5.5196 C   0  0  0  0  0  0  0  0  0  0  0  0
   -0.2279   -1.9876   -4.3061 C   0  0  0  0  0  0  0  0  0  0  0  0
   -0.3042   -1.3763   -2.9070 C   0  0  0  0  0  0  0  0  0  0  0  0
   -1.4478   -0.5166   -2.6507 N   0  0  0  0  0  0  0  0  0  0  0  0
   -2.1646   -0.3120   -1.4897 C   0  0  0  0  0  0  0  0  0  0  0  0
   -3.0526    0.5383   -1.4785 O   0  0  0  0  0  0  0  0  0  0  0  0
   -1.9386   -1.1390   -0.2747 C   0  0  0  0  0  0  0  0  0  0  0  0
   -3.0563   -1.5849    0.4432 C   0  0  0  0  0  0  0  0  0  0  0  0
   -2.8994   -2.4847    1.5038 C   0  0  0  0  0  0  0  0  0  0  0  0
   -1.6249   -2.9716    1.8344 C   0  0  0  0  0  0  0  0  0  0  0  0
   -1.4572   -4.1162    2.7662 C   0  0  0  0  0  0  0  0  0  0  0  0
   -0.7374   -3.9678    4.0741 C   0  0  0  0  0  0  0  0  0  0  0  0
   -0.4896   -4.8755    4.9848 N   0  0  0  0  0  0  0  0  0  0  0  0
    0.2490   -4.2337    5.9696 C   0  0  0  0  0  0  0  0  0  0  0  0
    0.7025   -4.7324    7.1451 C   0  0  0  0  0  0  0  0  0  0  0  0
    1.4749   -3.8075    8.0407 C   0  0  0  0  0  0  0  0  0  0  0  0
    2.8436   -4.0025    8.2653 C   0  0  0  0  0  0  0  0  0  0  0  0
    3.4990   -5.0018    7.6558 F   0  0  0  0  0  0  0  0  0  0  0  0
    3.5665   -3.1781    9.1300 C   0  0  0  0  0  0  0  0  0  0  0  0
    2.9311   -2.1212    9.7790 C   0  0  0  0  0  0  0  0  0  0  0  0
    1.5713   -1.9040    9.5668 C   0  0  0  0  0  0  0  0  0  0  0  0
    0.8542   -2.7501    8.7189 C   0  0  0  0  0  0  0  0  0  0  0  0
   -0.4532   -2.5048    8.5436 F   0  0  0  0  0  0  0  0  0  0  0  0
    0.4783   -6.0831    7.5939 C   0  0  0  0  0  0  0  0  0  0  0  0
    0.7963   -6.6497    8.8165 C   0  0  0  0  0  0  0  0  0  0  0  0
    0.4332   -8.0007    8.7812 C   0  0  0  0  0  0  0  0  0  0  0  0
   -0.1464   -8.2663    7.5509 C   0  0  0  0  0  0  0  0  0  0  0  0
   -0.1115   -7.0815    6.8330 N   0  0  0  0  0  0  0  0  0  0  0  0
   -0.6929   -9.5090    7.0665 C   0  0  0  0  0  0  0  0  0  0  0  0
   -0.6405  -10.6978    7.9778 C   0  0  0  0  0  0  0  0  0  0  0  0
   -1.4709  -10.7755    9.1025 C   0  0  0  0  0  0  0  0  0  0  0  0
   -2.3625   -9.8066    9.3594 F   0  0  0  0  0  0  0  0  0  0  0  0
   -1.3886  -11.8444    9.9958 C   0  0  0  0  0  0  0  0  0  0  0  0
   -0.4771  -12.8735    9.7672 C   0  0  0  0  0  0  0  0  0  0  0  0
    0.3504  -12.8231    8.6466 C   0  0  0  0  0  0  0  0  0  0  0  0
    0.2727  -11.7388    7.7712 C   0  0  0  0  0  0  0  0  0  0  0  0
    1.0870  -11.7273    6.7052 F   0  0  0  0  0  0  0  0  0  0  0  0
   -1.2633   -9.6851    5.8500 C   0  0  0  0  0  0  0  0  0  0  0  0
   -1.4348   -8.7603    4.8300 N   0  0  0  0  0  0  0  0  0  0  0  0
   -2.0234   -9.4072    3.8541 C   0  0  0  0  0  0  0  0  0  0  0  0
   -2.4612   -8.8918    2.5165 C   0  0  0  0  0  0  0  0  0  0  0  0
   -3.1175   -9.7735    1.5226 C   0  0  0  0  0  0  0  0  0  0  0  0
   -2.4594  -10.1821    0.3571 C   0  0  0  0  0  0  0  0  0  0  0  0
   -1.1818   -9.8348    0.1439 F   0  0  0  0  0  0  0  0  0  0  0  0
   -3.1157  -10.9215   -0.6282 C   0  0  0  0  0  0  0  0  0  0  0  0
   -4.4506  -11.2833   -0.4527 C   0  0  0  0  0  0  0  0  0  0  0  0
   -5.1183  -10.9060    0.7111 C   0  0  0  0  0  0  0  0  0  0  0  0
   -4.4544  -10.1540    1.6807 C   0  0  0  0  0  0  0  0  0  0  0  0
   -5.1307   -9.7976    2.7824 F   0  0  0  0  0  0  0  0  0  0  0  0
   -2.3222   -7.5830    2.2347 C   0  0  0  0  0  0  0  0  0  0  0  0
   -2.7458   -6.9432    0.9935 C   0  0  0  0  0  0  0  0  0  0  0  0
   -2.4686   -5.6327    1.0611 C   0  0  0  0  0  0  0  0  0  0  0  0
   -1.8588   -5.3370    2.3597 C   0  0  0  0  0  0  0  0  0  0  0  0
   -1.7988   -6.5576    2.9835 N   0  0  0  0  0  0  0  0  0  0  0  0
   -2.2831  -10.8248    4.1389 C   0  0  0  0  0  0  0  0  0  0  0  0
   -1.8245  -10.9358    5.3792 C   0  0  0  0  0  0  0  0  0  0  0  0
    0.4473   -2.8704    5.5233 C   0  0  0  0  0  0  0  0  0  0  0  0
   -0.1937   -2.6385    4.3856 C   0  0  0  0  0  0  0  0  0  0  0  0
   -0.5065   -2.4479    1.1733 C   0  0  0  0  0  0  0  0  0  0  0  0
   -0.6632   -1.5052    0.1568 C   0  0  0  0  0  0  0  0  0  0  0  0
    1.3931    3.2676   -4.0194 C   0  0  0  0  0  0  0  0  0  0  0  0
    1.4646    0.4751    0.3190 H   0  0  0  0  0  0  0  0  0  0  0  0
    1.3497    2.1412    0.8326 H   0  0  0  0  0  0  0  0  0  0  0  0
    2.7144    1.6136   -0.1225 H   0  0  0  0  0  0  0  0  0  0  0  0
   -1.4783    3.0802   -2.2589 H   0  0  0  0  0  0  0  0  0  0  0  0
   -0.9401    3.4076   -6.4139 H   0  0  0  0  0  0  0  0  0  0  0  0
    1.0436    5.0893   -7.2047 H   0  0  0  0  0  0  0  0  0  0  0  0
    2.4760    5.2006   -9.1447 H   0  0  0  0  0  0  0  0  0  0  0  0
    4.0433    3.4066   -9.5935 H   0  0  0  0  0  0  0  0  0  0  0  0
    4.1419    1.4971   -8.1142 H   0  0  0  0  0  0  0  0  0  0  0  0
    2.2485   -0.7555   -5.0955 H   0  0  0  0  0  0  0  0  0  0  0  0
    0.2127    0.7964   -6.3587 H   0  0  0  0  0  0  0  0  0  0  0  0
    0.2391    0.6948   -4.5623 H   0  0  0  0  0  0  0  0  0  0  0  0
   -0.0126   -1.6213   -6.3754 H   0  0  0  0  0  0  0  0  0  0  0  0
   -1.3495   -0.7413   -5.5318 H   0  0  0  0  0  0  0  0  0  0  0  0
    0.7103   -2.4973   -4.3761 H   0  0  0  0  0  0  0  0  0  0  0  0
   -1.1051   -2.5969   -4.3710 H   0  0  0  0  0  0  0  0  0  0  0  0
    0.5822   -0.7969   -2.7537 H   0  0  0  0  0  0  0  0  0  0  0  0
   -0.4074   -2.2029   -2.2354 H   0  0  0  0  0  0  0  0  0  0  0  0
   -1.7600    0.0011   -3.4277 H   0  0  0  0  0  0  0  0  0  0  0  0
   -3.9983   -1.2487    0.1891 H   0  0  0  0  0  0  0  0  0  0  0  0
   -3.7233   -2.7912    2.0445 H   0  0  0  0  0  0  0  0  0  0  0  0
    4.5714   -3.3515    9.2884 H   0  0  0  0  0  0  0  0  0  0  0  0
    3.4637   -1.5041   10.4119 H   0  0  0  0  0  0  0  0  0  0  0  0
    1.0945   -1.1182   10.0361 H   0  0  0  0  0  0  0  0  0  0  0  0
    1.2270   -6.1600    9.6163 H   0  0  0  0  0  0  0  0  0  0  0  0
    0.5733   -8.6834    9.5423 H   0  0  0  0  0  0  0  0  0  0  0  0
   -0.4548   -6.9655    5.9176 H   0  0  0  0  0  0  0  0  0  0  0  0
   -2.0022  -11.8728   10.8251 H   0  0  0  0  0  0  0  0  0  0  0  0
   -0.4152  -13.6677   10.4233 H   0  0  0  0  0  0  0  0  0  0  0  0
    1.0200  -13.5869    8.4644 H   0  0  0  0  0  0  0  0  0  0  0  0
   -2.6134  -11.2000   -1.4856 H   0  0  0  0  0  0  0  0  0  0  0  0
   -4.9412  -11.8270   -1.1798 H   0  0  0  0  0  0  0  0  0  0  0  0
   -6.1021  -11.1824    0.8553 H   0  0  0  0  0  0  0  0  0  0  0  0
   -3.1874   -7.4218    0.1929 H   0  0  0  0  0  0  0  0  0  0  0  0
   -2.6552   -4.9426    0.3168 H   0  0  0  0  0  0  0  0  0  0  0  0
   -1.4171   -6.6860    3.8819 H   0  0  0  0  0  0  0  0  0  0  0  0
   -2.7095  -11.5442    3.5342 H   0  0  0  0  0  0  0  0  0  0  0  0
   -1.8626  -11.8027    5.9378 H   0  0  0  0  0  0  0  0  0  0  0  0
    1.0143   -2.1696    6.0257 H   0  0  0  0  0  0  0  0  0  0  0  0
   -0.2863   -1.7565    3.8579 H   0  0  0  0  0  0  0  0  0  0  0  0
    0.4398   -2.7615    1.4400 H   0  0  0  0  0  0  0  0  0  0  0  0
    0.1686   -1.0765   -0.2783 H   0  0  0  0  0  0  0  0  0  0  0  0
    2.4140    3.3121   -3.8749 H   0  0  0  0  0  0  0  0  0  0  0  0
  1  2  1  0  0  0  0
  1 82  1  0  0  0  0
  1 83  1  0  0  0  0
  1 84  1  0  0  0  0
  2  3  1  0  0  0  0
  3  4  2  0  0  0  0
  3  5  1  0  0  0  0
  5  6  1  0  0  0  0
  5 81  2  0  0  0  0
  6  7  2  0  0  0  0
  6 85  1  0  0  0  0
  7  8  1  0  0  0  0
  7  9  1  0  0  0  0
  9 10  2  0  0  0  0
  9 86  1  0  0  0  0
 10 11  1  0  0  0  0
 10 81  1  0  0  0  0
 11 12  1  0  0  0  0
 11 16  2  0  0  0  0
 12 13  2  0  0  0  0
 12 87  1  0  0  0  0
 13 14  1  0  0  0  0
 13 88  1  0  0  0  0
 14 15  2  0  0  0  0
 14 89  1  0  0  0  0
 15 16  1  0  0  0  0
 15 90  1  0  0  0  0
 16 17  1  0  0  0  0
 17 18  2  0  0  0  0
 17 19  1  0  0  0  0
 19 20  1  0  0  0  0
 19 91  1  0  0  0  0
 20 21  1  0  0  0  0
 20 92  1  0  0  0  0
 20 93  1  0  0  0  0
 21 22  1  0  0  0  0
 21 94  1  0  0  0  0
 21 95  1  0  0  0  0
 22 23  1  0  0  0  0
 22 96  1  0  0  0  0
 22 97  1  0  0  0  0
 23 24  1  0  0  0  0
 23 98  1  0  0  0  0
 23 99  1  0  0  0  0
 24 25  1  0  0  0  0
 24100  1  0  0  0  0
 25 26  2  0  0  0  0
 25 27  1  0  0  0  0
 27 28  1  0  0  0  0
 27 80  2  0  0  0  0
 28 29  2  0  0  0  0
 28101  1  0  0  0  0
 29 30  1  0  0  0  0
 29102  1  0  0  0  0
 30 31  1  0  0  0  0
 30 79  2  0  0  0  0
 31 32  1  0  0  0  0
 31 73  2  0  0  0  0
 32 33  2  0  0  0  0
 32 78  1  0  0  0  0
 33 34  1  0  0  0  0
 34 35  2  0  0  0  0
 34 77  1  0  0  0  0
 35 36  1  0  0  0  0
 35 44  1  0  0  0  0
 36 37  1  0  0  0  0
 36 42  2  0  0  0  0
 37 38  1  0  0  0  0
 37 39  2  0  0  0  0
 39 40  1  0  0  0  0
 39103  1  0  0  0  0
 40 41  2  0  0  0  0
 40104  1  0  0  0  0
 41 42  1  0  0  0  0
 41105  1  0  0  0  0
 42 43  1  0  0  0  0
 44 45  2  0  0  0  0
 44 48  1  0  0  0  0
 45 46  1  0  0  0  0
 45106  1  0  0  0  0
 46 47  2  0  0  0  0
 46107  1  0  0  0  0
 47 48  1  0  0  0  0
 47 49  1  0  0  0  0
 48108  1  0  0  0  0
 49 50  1  0  0  0  0
 49 58  2  0  0  0  0
 50 51  1  0  0  0  0
 50 56  2  0  0  0  0
 51 52  1  0  0  0  0
 51 53  2  0  0  0  0
 53 54  1  0  0  0  0
 53109  1  0  0  0  0
 54 55  2  0  0  0  0
 54110  1  0  0  0  0
 55 56  1  0  0  0  0
 55111  1  0  0  0  0
 56 57  1  0  0  0  0
 58 59  1  0  0  0  0
 58 76  1  0  0  0  0
 59 60  2  0  0  0  0
 60 61  1  0  0  0  0
 60 75  1  0  0  0  0
 61 62  1  0  0  0  0
 61 70  2  0  0  0  0
 62 63  1  0  0  0  0
 62 68  2  0  0  0  0
 63 64  1  0  0  0  0
 63 65  2  0  0  0  0
 65 66  1  0  0  0  0
 65112  1  0  0  0  0
 66 67  2  0  0  0  0
 66113  1  0  0  0  0
 67 68  1  0  0  0  0
 67114  1  0  0  0  0
 68 69  1  0  0  0  0
 70 71  1  0  0  0  0
 70 74  1  0  0  0  0
 71 72  2  0  0  0  0
 71115  1  0  0  0  0
 72 73  1  0  0  0  0
 72116  1  0  0  0  0
 73 74  1  0  0  0  0
 74117  1  0  0  0  0
 75 76  2  0  0  0  0
 75118  1  0  0  0  0
 76119  1  0  0  0  0
 77 78  2  0  0  0  0
 77120  1  0  0  0  0
 78121  1  0  0  0  0
 79 80  1  0  0  0  0
 79122  1  0  0  0  0
 80123  1  0  0  0  0
 81124  1  0  0  0  0
M  END
$$$$
