1_1_1047
 OpenBabel04152301373D

127136  0  0  1  0  0  0  0  0999 V2000
    0.8925    0.7277   -0.6389 C   0  0  0  0  0  0  0  0  0  0  0  0
    0.4577    0.1676   -1.9866 C   0  0  1  0  0  0  0  0  0  0  0  0
    1.0187   -1.2440   -2.2358 C   0  0  0  0  0  0  0  0  0  0  0  0
    0.3115   -2.3858   -1.5291 C   0  0  0  0  0  0  0  0  0  0  0  0
   -0.6435   -2.9577   -2.0587 O   0  0  0  0  0  0  0  0  0  0  0  0
    0.7178   -2.8309   -0.3102 N   0  0  0  0  0  0  0  0  0  0  0  0
    1.6496   -2.2429    0.6274 C   0  0  0  0  0  0  0  0  0  0  0  0
    0.8948   -1.5639    1.7730 C   0  0  0  0  0  0  0  0  0  0  0  0
    0.4258   -2.4932    2.8817 C   0  0  0  0  0  0  0  0  0  0  0  0
    1.5397   -3.2210    3.6038 C   0  0  0  0  0  0  0  0  0  0  0  0
    2.5235   -2.3349    4.2083 N   0  0  0  0  0  0  0  0  0  0  0  0
    3.1777   -2.4964    5.4059 C   0  0  0  0  0  0  0  0  0  0  0  0
    3.9145   -1.6192    5.8445 O   0  0  0  0  0  0  0  0  0  0  0  0
    2.9419   -3.7326    6.1771 C   0  0  0  0  0  0  0  0  0  0  0  0
    2.6316   -3.6387    7.5341 C   0  0  0  0  0  0  0  0  0  0  0  0
    2.2832   -4.7924    8.2358 C   0  0  0  0  0  0  0  0  0  0  0  0
    2.1880   -6.0250    7.5684 C   0  0  0  0  0  0  0  0  0  0  0  0
    1.8439   -7.2698    8.2944 C   0  0  0  0  0  0  0  0  0  0  0  0
    2.8497   -8.3880    8.3555 C   0  0  0  0  0  0  0  0  0  0  0  0
    2.7375   -9.5749    8.8935 N   0  0  0  0  0  0  0  0  0  0  0  0
    3.9265  -10.2317    8.6025 C   0  0  0  0  0  0  0  0  0  0  0  0
    4.3453  -11.4496    9.0179 C   0  0  0  0  0  0  0  0  0  0  0  0
    5.6982  -11.9050    8.5548 C   0  0  0  0  0  0  0  0  0  0  0  0
    6.8774  -11.2997    9.0123 C   0  0  0  0  0  0  0  0  0  0  0  0
    6.8239  -10.2716    9.8731 F   0  0  0  0  0  0  0  0  0  0  0  0
    8.1321  -11.7021    8.5526 C   0  0  0  0  0  0  0  0  0  0  0  0
    8.2345  -12.7545    7.6457 C   0  0  0  0  0  0  0  0  0  0  0  0
    7.0778  -13.3890    7.1965 C   0  0  0  0  0  0  0  0  0  0  0  0
    5.8265  -12.9579    7.6413 C   0  0  0  0  0  0  0  0  0  0  0  0
    4.7397  -13.5822    7.1632 F   0  0  0  0  0  0  0  0  0  0  0  0
    3.5808  -12.3058    9.8821 C   0  0  0  0  0  0  0  0  0  0  0  0
    3.9346  -13.5296   10.4199 C   0  0  0  0  0  0  0  0  0  0  0  0
    2.8601  -13.9940   11.1866 C   0  0  0  0  0  0  0  0  0  0  0  0
    1.8539  -13.0410   11.1562 C   0  0  0  0  0  0  0  0  0  0  0  0
    2.3057  -12.0155   10.3443 N   0  0  0  0  0  0  0  0  0  0  0  0
    0.5769  -13.0622   11.8214 C   0  0  0  0  0  0  0  0  0  0  0  0
    0.2646  -14.2381   12.6974 C   0  0  0  0  0  0  0  0  0  0  0  0
   -0.6748  -15.2071   12.3241 C   0  0  0  0  0  0  0  0  0  0  0  0
   -1.3539  -15.0880   11.1731 F   0  0  0  0  0  0  0  0  0  0  0  0
   -0.9634  -16.2955   13.1479 C   0  0  0  0  0  0  0  0  0  0  0  0
   -0.2859  -16.4525   14.3559 C   0  0  0  0  0  0  0  0  0  0  0  0
    0.6696  -15.5122   14.7364 C   0  0  0  0  0  0  0  0  0  0  0  0
    0.9301  -14.4140   13.9169 C   0  0  0  0  0  0  0  0  0  0  0  0
    1.8490  -13.5265   14.3265 F   0  0  0  0  0  0  0  0  0  0  0  0
   -0.3660  -12.0917   11.7366 C   0  0  0  0  0  0  0  0  0  0  0  0
   -0.3352  -10.8980   11.0278 N   0  0  0  0  0  0  0  0  0  0  0  0
   -1.4905  -10.3182   11.2498 C   0  0  0  0  0  0  0  0  0  0  0  0
   -1.9950   -8.9882   10.7614 C   0  0  0  0  0  0  0  0  0  0  0  0
   -3.3428   -8.4997   11.1459 C   0  0  0  0  0  0  0  0  0  0  0  0
   -3.6222   -8.1243   12.4656 C   0  0  0  0  0  0  0  0  0  0  0  0
   -2.6692   -8.2054   13.4058 F   0  0  0  0  0  0  0  0  0  0  0  0
   -4.8939   -7.6990   12.8524 C   0  0  0  0  0  0  0  0  0  0  0  0
   -5.9144   -7.6143   11.9076 C   0  0  0  0  0  0  0  0  0  0  0  0
   -5.6547   -7.9624   10.5831 C   0  0  0  0  0  0  0  0  0  0  0  0
   -4.3837   -8.4083   10.2154 C   0  0  0  0  0  0  0  0  0  0  0  0
   -4.1777   -8.7437    8.9335 F   0  0  0  0  0  0  0  0  0  0  0  0
   -1.1855   -8.2209   10.0082 C   0  0  0  0  0  0  0  0  0  0  0  0
   -1.5101   -6.8977    9.4856 C   0  0  0  0  0  0  0  0  0  0  0  0
   -0.4574   -6.4306    8.7937 C   0  0  0  0  0  0  0  0  0  0  0  0
    0.6255   -7.4152    8.8477 C   0  0  0  0  0  0  0  0  0  0  0  0
    0.0939   -8.4544    9.5667 N   0  0  0  0  0  0  0  0  0  0  0  0
   -2.3978  -11.0936   12.1065 C   0  0  0  0  0  0  0  0  0  0  0  0
   -1.6472  -12.1422   12.4114 C   0  0  0  0  0  0  0  0  0  0  0  0
    4.7143   -9.3448    7.7786 C   0  0  0  0  0  0  0  0  0  0  0  0
    4.1404   -8.1568    7.6838 C   0  0  0  0  0  0  0  0  0  0  0  0
    2.4959   -6.0972    6.2030 C   0  0  0  0  0  0  0  0  0  0  0  0
    2.9542   -4.9732    5.5342 C   0  0  0  0  0  0  0  0  0  0  0  0
   -0.9913    0.2212   -2.1376 N   0  0  0  0  0  0  0  0  0  0  0  0
   -1.7962    1.2674   -2.4984 C   0  0  0  0  0  0  0  0  0  0  0  0
   -3.0143    1.0633   -2.5383 O   0  0  0  0  0  0  0  0  0  0  0  0
   -1.1927    2.5914   -2.9861 C   0  0  0  0  0  0  0  0  0  0  0  0
   -0.3704    3.3145   -2.0184 N   0  0  0  0  0  0  0  0  0  0  0  0
    0.9069    3.8655   -2.4159 C   0  0  0  0  0  0  0  0  0  0  0  0
   -0.9665    3.8238   -0.8821 C   0  0  0  0  0  0  0  0  0  0  0  0
   -0.4040    4.8831   -0.2731 N   0  0  0  0  0  0  0  0  0  0  0  0
   -0.9840    5.3413    0.8534 C   0  0  0  0  0  0  0  0  0  0  0  0
   -2.0843    4.7628    1.4287 C   0  0  0  0  0  0  0  0  0  0  0  0
   -2.5796    3.6775    0.7565 C   0  0  0  0  0  0  0  0  0  0  0  0
   -2.0511    3.2106   -0.3901 N   0  0  0  0  0  0  0  0  0  0  0  0
    1.9581    0.6750   -0.5578 H   0  0  0  0  0  0  0  0  0  0  0  0
    0.4462    0.1541    0.1465 H   0  0  0  0  0  0  0  0  0  0  0  0
    0.5786    1.7475   -0.5584 H   0  0  0  0  0  0  0  0  0  0  0  0
    0.8786    0.7946   -2.7446 H   0  0  0  0  0  0  0  0  0  0  0  0
    2.0408   -1.2486   -1.9194 H   0  0  0  0  0  0  0  0  0  0  0  0
    0.8774   -1.4256   -3.2808 H   0  0  0  0  0  0  0  0  0  0  0  0
    0.3170   -3.6827   -0.0219 H   0  0  0  0  0  0  0  0  0  0  0  0
    2.2491   -1.5161    0.1202 H   0  0  0  0  0  0  0  0  0  0  0  0
    2.2713   -3.0150    1.0301 H   0  0  0  0  0  0  0  0  0  0  0  0
    0.0341   -1.0798    1.3610 H   0  0  0  0  0  0  0  0  0  0  0  0
    1.5898   -0.8885    2.2266 H   0  0  0  0  0  0  0  0  0  0  0  0
   -0.2270   -3.2238    2.4516 H   0  0  0  0  0  0  0  0  0  0  0  0
   -0.0581   -1.8773    3.6107 H   0  0  0  0  0  0  0  0  0  0  0  0
    2.0413   -3.8529    2.9009 H   0  0  0  0  0  0  0  0  0  0  0  0
    1.0866   -3.7739    4.4000 H   0  0  0  0  0  0  0  0  0  0  0  0
    2.7469   -1.5230    3.6983 H   0  0  0  0  0  0  0  0  0  0  0  0
    2.6596   -2.7252    8.0135 H   0  0  0  0  0  0  0  0  0  0  0  0
    2.0946   -4.7405    9.2491 H   0  0  0  0  0  0  0  0  0  0  0  0
    8.9827  -11.2208    8.8840 H   0  0  0  0  0  0  0  0  0  0  0  0
    9.1602  -13.0621    7.3089 H   0  0  0  0  0  0  0  0  0  0  0  0
    7.1462  -14.1779    6.5347 H   0  0  0  0  0  0  0  0  0  0  0  0
    4.8342  -14.0157   10.2802 H   0  0  0  0  0  0  0  0  0  0  0  0
    2.8230  -14.8942   11.6898 H   0  0  0  0  0  0  0  0  0  0  0  0
    1.7975  -11.2008   10.1270 H   0  0  0  0  0  0  0  0  0  0  0  0
   -1.6778  -16.9837   12.8632 H   0  0  0  0  0  0  0  0  0  0  0  0
   -0.4907  -17.2602   14.9648 H   0  0  0  0  0  0  0  0  0  0  0  0
    1.1839  -15.6283   15.6236 H   0  0  0  0  0  0  0  0  0  0  0  0
   -5.0780   -7.4477   13.8363 H   0  0  0  0  0  0  0  0  0  0  0  0
   -6.8557   -7.2961   12.1864 H   0  0  0  0  0  0  0  0  0  0  0  0
   -6.4016   -7.8906    9.8745 H   0  0  0  0  0  0  0  0  0  0  0  0
   -2.4039   -6.4009    9.6250 H   0  0  0  0  0  0  0  0  0  0  0  0
   -0.4181   -5.5236    8.3030 H   0  0  0  0  0  0  0  0  0  0  0  0
    0.5830   -9.2891    9.7493 H   0  0  0  0  0  0  0  0  0  0  0  0
   -3.3650  -10.8783   12.3949 H   0  0  0  0  0  0  0  0  0  0  0  0
   -1.9385  -12.8995   13.0492 H   0  0  0  0  0  0  0  0  0  0  0  0
    5.6046   -9.6030    7.3251 H   0  0  0  0  0  0  0  0  0  0  0  0
    4.5027   -7.2925    7.2516 H   0  0  0  0  0  0  0  0  0  0  0  0
    2.3812   -6.9882    5.6951 H   0  0  0  0  0  0  0  0  0  0  0  0
    3.3029   -5.0521    4.5661 H   0  0  0  0  0  0  0  0  0  0  0  0
   -1.4621   -0.6232   -1.9519 H   0  0  0  0  0  0  0  0  0  0  0  0
   -1.9994    3.2326   -3.2744 H   0  0  0  0  0  0  0  0  0  0  0  0
   -0.5335    2.3305   -3.7876 H   0  0  0  0  0  0  0  0  0  0  0  0
    1.2442    3.3777   -3.3065 H   0  0  0  0  0  0  0  0  0  0  0  0
    1.6204    3.7125   -1.6334 H   0  0  0  0  0  0  0  0  0  0  0  0
    0.8008    4.9139   -2.6018 H   0  0  0  0  0  0  0  0  0  0  0  0
   -0.5770    6.1737    1.3077 H   0  0  0  0  0  0  0  0  0  0  0  0
   -2.5071    5.1173    2.3008 H   0  0  0  0  0  0  0  0  0  0  0  0
   -3.4011    3.1921    1.1495 H   0  0  0  0  0  0  0  0  0  0  0  0
  1  2  1  0  0  0  0
  1 80  1  0  0  0  0
  1 81  1  0  0  0  0
  1 82  1  0  0  0  0
  2  3  1  0  0  0  0
  2 68  1  0  0  0  0
  2 83  1  6  0  0  0
  3  4  1  0  0  0  0
  3 84  1  0  0  0  0
  3 85  1  0  0  0  0
  4  5  2  0  0  0  0
  4  6  1  0  0  0  0
  6  7  1  0  0  0  0
  6 86  1  0  0  0  0
  7  8  1  0  0  0  0
  7 87  1  0  0  0  0
  7 88  1  0  0  0  0
  8  9  1  0  0  0  0
  8 89  1  0  0  0  0
  8 90  1  0  0  0  0
  9 10  1  0  0  0  0
  9 91  1  0  0  0  0
  9 92  1  0  0  0  0
 10 11  1  0  0  0  0
 10 93  1  0  0  0  0
 10 94  1  0  0  0  0
 11 12  1  0  0  0  0
 11 95  1  0  0  0  0
 12 13  2  0  0  0  0
 12 14  1  0  0  0  0
 14 15  1  0  0  0  0
 14 67  2  0  0  0  0
 15 16  2  0  0  0  0
 15 96  1  0  0  0  0
 16 17  1  0  0  0  0
 16 97  1  0  0  0  0
 17 18  1  0  0  0  0
 17 66  2  0  0  0  0
 18 19  1  0  0  0  0
 18 60  2  0  0  0  0
 19 20  2  0  0  0  0
 19 65  1  0  0  0  0
 20 21  1  0  0  0  0
 21 22  2  0  0  0  0
 21 64  1  0  0  0  0
 22 23  1  0  0  0  0
 22 31  1  0  0  0  0
 23 24  1  0  0  0  0
 23 29  2  0  0  0  0
 24 25  1  0  0  0  0
 24 26  2  0  0  0  0
 26 27  1  0  0  0  0
 26 98  1  0  0  0  0
 27 28  2  0  0  0  0
 27 99  1  0  0  0  0
 28 29  1  0  0  0  0
 28100  1  0  0  0  0
 29 30  1  0  0  0  0
 31 32  2  0  0  0  0
 31 35  1  0  0  0  0
 32 33  1  0  0  0  0
 32101  1  0  0  0  0
 33 34  2  0  0  0  0
 33102  1  0  0  0  0
 34 35  1  0  0  0  0
 34 36  1  0  0  0  0
 35103  1  0  0  0  0
 36 37  1  0  0  0  0
 36 45  2  0  0  0  0
 37 38  1  0  0  0  0
 37 43  2  0  0  0  0
 38 39  1  0  0  0  0
 38 40  2  0  0  0  0
 40 41  1  0  0  0  0
 40104  1  0  0  0  0
 41 42  2  0  0  0  0
 41105  1  0  0  0  0
 42 43  1  0  0  0  0
 42106  1  0  0  0  0
 43 44  1  0  0  0  0
 45 46  1  0  0  0  0
 45 63  1  0  0  0  0
 46 47  2  0  0  0  0
 47 48  1  0  0  0  0
 47 62  1  0  0  0  0
 48 49  1  0  0  0  0
 48 57  2  0  0  0  0
 49 50  1  0  0  0  0
 49 55  2  0  0  0  0
 50 51  1  0  0  0  0
 50 52  2  0  0  0  0
 52 53  1  0  0  0  0
 52107  1  0  0  0  0
 53 54  2  0  0  0  0
 53108  1  0  0  0  0
 54 55  1  0  0  0  0
 54109  1  0  0  0  0
 55 56  1  0  0  0  0
 57 58  1  0  0  0  0
 57 61  1  0  0  0  0
 58 59  2  0  0  0  0
 58110  1  0  0  0  0
 59 60  1  0  0  0  0
 59111  1  0  0  0  0
 60 61  1  0  0  0  0
 61112  1  0  0  0  0
 62 63  2  0  0  0  0
 62113  1  0  0  0  0
 63114  1  0  0  0  0
 64 65  2  0  0  0  0
 64115  1  0  0  0  0
 65116  1  0  0  0  0
 66 67  1  0  0  0  0
 66117  1  0  0  0  0
 67118  1  0  0  0  0
 68 69  1  0  0  0  0
 68119  1  0  0  0  0
 69 70  2  0  0  0  0
 69 71  1  0  0  0  0
 71 72  1  0  0  0  0
 71120  1  0  0  0  0
 71121  1  0  0  0  0
 72 73  1  0  0  0  0
 72 74  1  0  0  0  0
 73122  1  0  0  0  0
 73123  1  0  0  0  0
 73124  1  0  0  0  0
 74 75  1  0  0  0  0
 74 79  2  0  0  0  0
 75 76  2  0  0  0  0
 76 77  1  0  0  0  0
 76125  1  0  0  0  0
 77 78  2  0  0  0  0
 77126  1  0  0  0  0
 78 79  1  0  0  0  0
 78127  1  0  0  0  0
M  END
$$$$
