1_1_4021
 OpenBabel04152301373D

131140  0  0  1  0  0  0  0  0999 V2000
   -0.6307   -2.2543    1.6815 C   0  0  0  0  0  0  0  0  0  0  0  0
   -1.2721   -1.1224    0.8647 C   0  0  2  0  0  0  0  0  0  0  0  0
   -1.1724   -1.4250   -0.6300 C   0  0  0  0  0  0  0  0  0  0  0  0
   -0.5817   -0.7089   -1.4361 O   0  0  0  0  0  0  0  0  0  0  0  0
   -1.7770   -2.5461   -1.1161 N   0  0  0  0  0  0  0  0  0  0  0  0
   -2.6624   -3.4774   -0.4416 C   0  0  0  0  0  0  0  0  0  0  0  0
   -3.9385   -3.7065   -1.2422 C   0  0  0  0  0  0  0  0  0  0  0  0
   -3.7079   -4.2478   -2.6529 C   0  0  0  0  0  0  0  0  0  0  0  0
   -2.8205   -5.4828   -2.7225 C   0  0  0  0  0  0  0  0  0  0  0  0
   -3.3776   -6.6070   -1.9877 N   0  0  0  0  0  0  0  0  0  0  0  0
   -3.6168   -7.8855   -2.4267 C   0  0  0  0  0  0  0  0  0  0  0  0
   -4.2598   -8.6691   -1.7368 O   0  0  0  0  0  0  0  0  0  0  0  0
   -3.1099   -8.3015   -3.7499 C   0  0  0  0  0  0  0  0  0  0  0  0
   -3.9590   -8.9942   -4.6145 C   0  0  0  0  0  0  0  0  0  0  0  0
   -3.5091   -9.3380   -5.8899 C   0  0  0  0  0  0  0  0  0  0  0  0
   -2.2303   -8.9475   -6.3210 C   0  0  0  0  0  0  0  0  0  0  0  0
   -1.7338   -9.3012   -7.6739 C   0  0  0  0  0  0  0  0  0  0  0  0
   -0.5360  -10.2000   -7.8198 C   0  0  0  0  0  0  0  0  0  0  0  0
    0.0729  -10.5999   -8.9072 N   0  0  0  0  0  0  0  0  0  0  0  0
    1.1488  -11.3660   -8.4761 C   0  0  0  0  0  0  0  0  0  0  0  0
    2.0403  -12.0692   -9.2143 C   0  0  0  0  0  0  0  0  0  0  0  0
    3.1129  -12.8147   -8.4704 C   0  0  0  0  0  0  0  0  0  0  0  0
    2.8239  -13.9123   -7.6464 C   0  0  0  0  0  0  0  0  0  0  0  0
    1.5584  -14.3299   -7.4884 F   0  0  0  0  0  0  0  0  0  0  0  0
    3.8216  -14.5664   -6.9212 C   0  0  0  0  0  0  0  0  0  0  0  0
    5.1487  -14.1610   -7.0429 C   0  0  0  0  0  0  0  0  0  0  0  0
    5.4659  -13.0961   -7.8833 C   0  0  0  0  0  0  0  0  0  0  0  0
    4.4548  -12.4273   -8.5758 C   0  0  0  0  0  0  0  0  0  0  0  0
    4.8067  -11.3909   -9.3514 F   0  0  0  0  0  0  0  0  0  0  0  0
    2.0221  -12.1305  -10.6520 C   0  0  0  0  0  0  0  0  0  0  0  0
    2.8407  -12.8605  -11.4950 C   0  0  0  0  0  0  0  0  0  0  0  0
    2.4922  -12.5539  -12.8148 C   0  0  0  0  0  0  0  0  0  0  0  0
    1.4128  -11.6848  -12.7937 C   0  0  0  0  0  0  0  0  0  0  0  0
    1.1410  -11.4264  -11.4602 N   0  0  0  0  0  0  0  0  0  0  0  0
    0.6808  -11.1349  -13.9078 C   0  0  0  0  0  0  0  0  0  0  0  0
    1.0711  -11.5769  -15.2898 C   0  0  0  0  0  0  0  0  0  0  0  0
    1.6785  -10.7121  -16.2089 C   0  0  0  0  0  0  0  0  0  0  0  0
    1.8986   -9.4272  -15.8916 F   0  0  0  0  0  0  0  0  0  0  0  0
    2.0334  -11.1412  -17.4894 C   0  0  0  0  0  0  0  0  0  0  0  0
    1.8211  -12.4667  -17.8642 C   0  0  0  0  0  0  0  0  0  0  0  0
    1.2413  -13.3515  -16.9583 C   0  0  0  0  0  0  0  0  0  0  0  0
    0.8609  -12.9027  -15.6933 C   0  0  0  0  0  0  0  0  0  0  0  0
    0.2940  -13.7876  -14.8592 F   0  0  0  0  0  0  0  0  0  0  0  0
   -0.3634  -10.2758  -13.8018 C   0  0  0  0  0  0  0  0  0  0  0  0
   -0.9597   -9.7606  -12.6573 N   0  0  0  0  0  0  0  0  0  0  0  0
   -1.9272   -8.9806  -13.0756 C   0  0  0  0  0  0  0  0  0  0  0  0
   -2.9322   -8.1992  -12.2746 C   0  0  0  0  0  0  0  0  0  0  0  0
   -3.9896   -7.4042  -12.9492 C   0  0  0  0  0  0  0  0  0  0  0  0
   -5.0195   -8.0338  -13.6586 C   0  0  0  0  0  0  0  0  0  0  0  0
   -5.0531   -9.3712  -13.7541 F   0  0  0  0  0  0  0  0  0  0  0  0
   -6.0126   -7.3022  -14.3115 C   0  0  0  0  0  0  0  0  0  0  0  0
   -6.0088   -5.9106  -14.2418 C   0  0  0  0  0  0  0  0  0  0  0  0
   -5.0031   -5.2616  -13.5280 C   0  0  0  0  0  0  0  0  0  0  0  0
   -4.0015   -6.0054  -12.9016 C   0  0  0  0  0  0  0  0  0  0  0  0
   -3.0483   -5.3422  -12.2307 F   0  0  0  0  0  0  0  0  0  0  0  0
   -2.8943   -8.2634  -10.9305 C   0  0  0  0  0  0  0  0  0  0  0  0
   -3.8094   -7.5785  -10.0226 C   0  0  0  0  0  0  0  0  0  0  0  0
   -3.4635   -7.8607   -8.7563 C   0  0  0  0  0  0  0  0  0  0  0  0
   -2.3241   -8.7796   -8.7657 C   0  0  0  0  0  0  0  0  0  0  0  0
   -2.0439   -8.9489  -10.0979 N   0  0  0  0  0  0  0  0  0  0  0  0
   -2.0280   -8.8799  -14.5378 C   0  0  0  0  0  0  0  0  0  0  0  0
   -1.0837   -9.7228  -14.9305 C   0  0  0  0  0  0  0  0  0  0  0  0
    1.1496  -11.3188   -7.0311 C   0  0  0  0  0  0  0  0  0  0  0  0
    0.0792  -10.6884   -6.5753 C   0  0  0  0  0  0  0  0  0  0  0  0
   -1.3914   -8.2498   -5.4395 C   0  0  0  0  0  0  0  0  0  0  0  0
   -1.8037   -7.9909   -4.1384 C   0  0  0  0  0  0  0  0  0  0  0  0
   -0.7643    0.3165    1.2020 C   0  0  2  0  0  0  0  0  0  0  0  0
    0.7461    0.4996    0.9900 C   0  0  0  0  0  0  0  0  0  0  0  0
   -1.2819    0.7262    2.5323 N   0  3  0  0  0  0  0  0  0  0  0  0
   -0.5185    0.3178    3.7222 C   0  0  0  0  0  0  0  0  0  0  0  0
    0.6310    1.2429    4.1616 C   0  0  0  0  0  0  0  0  0  0  0  0
    0.1947    2.6530    4.2396 N   0  0  0  0  0  0  0  0  0  0  0  0
   -0.1023    3.3400    5.7390 S   0  0  0  0  0  0  0  0  0  0  0  0
   -1.6205    2.5686    6.2590 C   0  0  0  0  0  0  0  0  0  0  0  0
    0.9353    2.8990    6.6431 O   0  0  0  0  0  0  0  0  0  0  0  0
   -0.3725    4.7503    5.5421 O   0  0  0  0  0  0  0  0  0  0  0  0
   -0.5326    3.1247    3.0369 C   0  0  0  0  0  0  0  0  0  0  0  0
   -1.6520    2.1535    2.6203 C   0  0  0  0  0  0  0  0  0  0  0  0
   -1.0440   -3.1929    1.3762 H   0  0  0  0  0  0  0  0  0  0  0  0
   -0.8277   -2.0993    2.7217 H   0  0  0  0  0  0  0  0  0  0  0  0
    0.4263   -2.2591    1.5155 H   0  0  0  0  0  0  0  0  0  0  0  0
   -2.3009   -1.1045    1.1582 H   0  0  0  0  0  0  0  0  0  0  0  0
   -1.5857   -2.7535   -2.0593 H   0  0  0  0  0  0  0  0  0  0  0  0
   -2.9196   -3.0808    0.5183 H   0  0  0  0  0  0  0  0  0  0  0  0
   -2.1543   -4.4137   -0.3406 H   0  0  0  0  0  0  0  0  0  0  0  0
   -4.4561   -2.7734   -1.3219 H   0  0  0  0  0  0  0  0  0  0  0  0
   -4.5002   -4.4504   -0.7168 H   0  0  0  0  0  0  0  0  0  0  0  0
   -3.2509   -3.4756   -3.2358 H   0  0  0  0  0  0  0  0  0  0  0  0
   -4.6670   -4.5432   -3.0241 H   0  0  0  0  0  0  0  0  0  0  0  0
   -1.8635   -5.2422   -2.3089 H   0  0  0  0  0  0  0  0  0  0  0  0
   -2.7420   -5.7710   -3.7500 H   0  0  0  0  0  0  0  0  0  0  0  0
   -3.6152   -6.4272   -1.0494 H   0  0  0  0  0  0  0  0  0  0  0  0
   -4.9122   -9.2501   -4.3128 H   0  0  0  0  0  0  0  0  0  0  0  0
   -4.1191   -9.8821   -6.5199 H   0  0  0  0  0  0  0  0  0  0  0  0
    3.5761  -15.3495   -6.2955 H   0  0  0  0  0  0  0  0  0  0  0  0
    5.8911  -14.6457   -6.5147 H   0  0  0  0  0  0  0  0  0  0  0  0
    6.4487  -12.8015   -7.9940 H   0  0  0  0  0  0  0  0  0  0  0  0
    3.5804  -13.5175  -11.2012 H   0  0  0  0  0  0  0  0  0  0  0  0
    2.9600  -12.9141  -13.6613 H   0  0  0  0  0  0  0  0  0  0  0  0
    0.4279  -10.8311  -11.1341 H   0  0  0  0  0  0  0  0  0  0  0  0
    2.4530  -10.4768  -18.1584 H   0  0  0  0  0  0  0  0  0  0  0  0
    2.0916  -12.7902  -18.8061 H   0  0  0  0  0  0  0  0  0  0  0  0
    1.0932  -14.3381  -17.2225 H   0  0  0  0  0  0  0  0  0  0  0  0
   -6.7485   -7.7910  -14.8450 H   0  0  0  0  0  0  0  0  0  0  0  0
   -6.7454   -5.3645  -14.7153 H   0  0  0  0  0  0  0  0  0  0  0  0
   -4.9988   -4.2317  -13.4625 H   0  0  0  0  0  0  0  0  0  0  0  0
   -4.5959   -6.9744  -10.3082 H   0  0  0  0  0  0  0  0  0  0  0  0
   -3.9265   -7.4894   -7.9120 H   0  0  0  0  0  0  0  0  0  0  0  0
   -1.3035   -9.5087  -10.4260 H   0  0  0  0  0  0  0  0  0  0  0  0
   -2.6663   -8.3042  -15.1089 H   0  0  0  0  0  0  0  0  0  0  0  0
   -0.8863   -9.9559  -15.9163 H   0  0  0  0  0  0  0  0  0  0  0  0
    1.8876  -11.7234   -6.4339 H   0  0  0  0  0  0  0  0  0  0  0  0
   -0.2407  -10.5701   -5.6013 H   0  0  0  0  0  0  0  0  0  0  0  0
   -0.4644   -7.9276   -5.7587 H   0  0  0  0  0  0  0  0  0  0  0  0
   -1.1480   -7.5708   -3.4612 H   0  0  0  0  0  0  0  0  0  0  0  0
   -1.1704    1.0058    0.4915 H   0  0  0  0  0  0  0  0  0  0  0  0
    1.2805   -0.1470    1.6543 H   0  0  0  0  0  0  0  0  0  0  0  0
    1.0136    1.5162    1.1897 H   0  0  0  0  0  0  0  0  0  0  0  0
    0.9962    0.2571   -0.0217 H   0  0  0  0  0  0  0  0  0  0  0  0
   -2.1289    0.1592    2.5702 H   0  0  0  0  0  0  0  0  0  0  0  0
   -0.0996   -0.6464    3.5227 H   0  0  0  0  0  0  0  0  0  0  0  0
   -1.2219    0.3436    4.5281 H   0  0  0  0  0  0  0  0  0  0  0  0
    1.4294    1.1651    3.4535 H   0  0  0  0  0  0  0  0  0  0  0  0
    0.9528    0.9377    5.1353 H   0  0  0  0  0  0  0  0  0  0  0  0
   -1.4546    1.5229    6.4135 H   0  0  0  0  0  0  0  0  0  0  0  0
   -2.3661    2.7036    5.5036 H   0  0  0  0  0  0  0  0  0  0  0  0
   -1.9531    3.0157    7.1724 H   0  0  0  0  0  0  0  0  0  0  0  0
    0.1618    3.2184    2.2282 H   0  0  0  0  0  0  0  0  0  0  0  0
   -0.9833    4.0662    3.2720 H   0  0  0  0  0  0  0  0  0  0  0  0
   -2.4428    2.2416    3.3357 H   0  0  0  0  0  0  0  0  0  0  0  0
   -1.9220    2.4398    1.6253 H   0  0  0  0  0  0  0  0  0  0  0  0
  1 79  1  0  0  0  0
  1 80  1  0  0  0  0
  1 81  1  0  0  0  0
  2  3  1  0  0  0  0
  2  1  1  0  0  0  0
  2 82  1  1  0  0  0
  3  4  2  0  0  0  0
  3  5  1  0  0  0  0
  5  6  1  0  0  0  0
  5 83  1  0  0  0  0
  6  7  1  0  0  0  0
  6 84  1  0  0  0  0
  6 85  1  0  0  0  0
  7  8  1  0  0  0  0
  7 86  1  0  0  0  0
  7 87  1  0  0  0  0
  8  9  1  0  0  0  0
  8 88  1  0  0  0  0
  8 89  1  0  0  0  0
  9 10  1  0  0  0  0
  9 90  1  0  0  0  0
  9 91  1  0  0  0  0
 10 11  1  0  0  0  0
 10 92  1  0  0  0  0
 11 12  2  0  0  0  0
 11 13  1  0  0  0  0
 13 14  1  0  0  0  0
 13 66  2  0  0  0  0
 14 15  2  0  0  0  0
 14 93  1  0  0  0  0
 15 16  1  0  0  0  0
 15 94  1  0  0  0  0
 16 17  1  0  0  0  0
 16 65  2  0  0  0  0
 17 18  1  0  0  0  0
 17 59  2  0  0  0  0
 18 19  2  0  0  0  0
 18 64  1  0  0  0  0
 19 20  1  0  0  0  0
 20 21  2  0  0  0  0
 20 63  1  0  0  0  0
 21 22  1  0  0  0  0
 21 30  1  0  0  0  0
 22 23  1  0  0  0  0
 22 28  2  0  0  0  0
 23 24  1  0  0  0  0
 23 25  2  0  0  0  0
 25 26  1  0  0  0  0
 25 95  1  0  0  0  0
 26 27  2  0  0  0  0
 26 96  1  0  0  0  0
 27 28  1  0  0  0  0
 27 97  1  0  0  0  0
 28 29  1  0  0  0  0
 30 31  2  0  0  0  0
 30 34  1  0  0  0  0
 31 32  1  0  0  0  0
 31 98  1  0  0  0  0
 32 33  2  0  0  0  0
 32 99  1  0  0  0  0
 33 34  1  0  0  0  0
 33 35  1  0  0  0  0
 34100  1  0  0  0  0
 35 36  1  0  0  0  0
 35 44  2  0  0  0  0
 36 37  1  0  0  0  0
 36 42  2  0  0  0  0
 37 38  1  0  0  0  0
 37 39  2  0  0  0  0
 39 40  1  0  0  0  0
 39101  1  0  0  0  0
 40 41  2  0  0  0  0
 40102  1  0  0  0  0
 41 42  1  0  0  0  0
 41103  1  0  0  0  0
 42 43  1  0  0  0  0
 44 45  1  0  0  0  0
 44 62  1  0  0  0  0
 45 46  2  0  0  0  0
 46 47  1  0  0  0  0
 46 61  1  0  0  0  0
 47 48  1  0  0  0  0
 47 56  2  0  0  0  0
 48 49  1  0  0  0  0
 48 54  2  0  0  0  0
 49 50  1  0  0  0  0
 49 51  2  0  0  0  0
 51 52  1  0  0  0  0
 51104  1  0  0  0  0
 52 53  2  0  0  0  0
 52105  1  0  0  0  0
 53 54  1  0  0  0  0
 53106  1  0  0  0  0
 54 55  1  0  0  0  0
 56 57  1  0  0  0  0
 56 60  1  0  0  0  0
 57 58  2  0  0  0  0
 57107  1  0  0  0  0
 58 59  1  0  0  0  0
 58108  1  0  0  0  0
 59 60  1  0  0  0  0
 60109  1  0  0  0  0
 61 62  2  0  0  0  0
 61110  1  0  0  0  0
 62111  1  0  0  0  0
 63 64  2  0  0  0  0
 63112  1  0  0  0  0
 64113  1  0  0  0  0
 65 66  1  0  0  0  0
 65114  1  0  0  0  0
 66115  1  0  0  0  0
 67 69  1  0  0  0  0
 67 68  1  0  0  0  0
 67  2  1  0  0  0  0
 67116  1  6  0  0  0
 68117  1  0  0  0  0
 68118  1  0  0  0  0
 68119  1  0  0  0  0
 69 70  1  0  0  0  0
 69 78  1  0  0  0  0
 69120  1  0  0  0  0
 70 71  1  0  0  0  0
 70121  1  0  0  0  0
 70122  1  0  0  0  0
 71 72  1  0  0  0  0
 71123  1  0  0  0  0
 71124  1  0  0  0  0
 72 73  1  0  0  0  0
 72 77  1  0  0  0  0
 73 74  1  0  0  0  0
 73 75  2  0  0  0  0
 73 76  2  0  0  0  0
 74125  1  0  0  0  0
 74126  1  0  0  0  0
 74127  1  0  0  0  0
 77 78  1  0  0  0  0
 77128  1  0  0  0  0
 77129  1  0  0  0  0
 78130  1  0  0  0  0
 78131  1  0  0  0  0
M  CHG  1  69   1
M  END
$$$$
