1_2_9262
 OpenBabel04152301373D

126137  0  0  1  0  0  0  0  0999 V2000
    1.5233   -0.2356   -2.4570 N   0  3  0  0  0  0  0  0  0  0  0  0
    0.6368   -0.6318   -1.3391 C   0  0  2  0  0  0  0  0  0  0  0  0
    1.2138   -0.1336    0.0101 C   0  0  0  0  0  0  0  0  0  0  0  0
    0.7462    0.8334    0.6166 O   0  0  0  0  0  0  0  0  0  0  0  0
    2.3097   -0.7172    0.5646 N   0  0  0  0  0  0  0  0  0  0  0  0
    3.2201   -1.7225    0.0559 C   0  0  0  0  0  0  0  0  0  0  0  0
    4.6047   -1.1435   -0.1868 C   0  0  0  0  0  0  0  0  0  0  0  0
    5.2711   -0.6167    1.0755 C   0  0  0  0  0  0  0  0  0  0  0  0
    5.4877   -1.6596    2.0684 N   0  0  0  0  0  0  0  0  0  0  0  0
    6.6563   -2.2135    2.5332 C   0  0  0  0  0  0  0  0  0  0  0  0
    6.6209   -3.2282    3.2158 O   0  0  0  0  0  0  0  0  0  0  0  0
    7.9552   -1.6014    2.1811 C   0  0  0  0  0  0  0  0  0  0  0  0
    9.0156   -2.4348    1.8191 C   0  0  0  0  0  0  0  0  0  0  0  0
   10.2184   -1.8727    1.3882 C   0  0  0  0  0  0  0  0  0  0  0  0
   10.3455   -0.4794    1.2617 C   0  0  0  0  0  0  0  0  0  0  0  0
   11.5600    0.1317    0.6649 C   0  0  0  0  0  0  0  0  0  0  0  0
   12.4120    1.0746    1.4683 C   0  0  0  0  0  0  0  0  0  0  0  0
   13.4621    1.7600    1.0931 N   0  0  0  0  0  0  0  0  0  0  0  0
   13.8452    2.5029    2.2024 C   0  0  0  0  0  0  0  0  0  0  0  0
   14.9107    3.3268    2.3398 C   0  0  0  0  0  0  0  0  0  0  0  0
   15.0984    4.0158    3.6606 C   0  0  0  0  0  0  0  0  0  0  0  0
   15.4847    3.3180    4.8123 C   0  0  0  0  0  0  0  0  0  0  0  0
   15.6295    1.9844    4.7831 F   0  0  0  0  0  0  0  0  0  0  0  0
   15.7052    3.9745    6.0245 C   0  0  0  0  0  0  0  0  0  0  0  0
   15.5729    5.3596    6.1000 C   0  0  0  0  0  0  0  0  0  0  0  0
   15.2003    6.0765    4.9650 C   0  0  0  0  0  0  0  0  0  0  0  0
   14.9553    5.4055    3.7659 C   0  0  0  0  0  0  0  0  0  0  0  0
   14.5936    6.1360    2.7003 F   0  0  0  0  0  0  0  0  0  0  0  0
   15.8743    3.5828    1.3014 C   0  0  0  0  0  0  0  0  0  0  0  0
   17.0295    4.3420    1.3691 C   0  0  0  0  0  0  0  0  0  0  0  0
   17.6131    4.3638    0.0991 C   0  0  0  0  0  0  0  0  0  0  0  0
   16.8552    3.5681   -0.7445 C   0  0  0  0  0  0  0  0  0  0  0  0
   15.7910    3.0955    0.0062 N   0  0  0  0  0  0  0  0  0  0  0  0
   17.0822    3.2661   -2.1346 C   0  0  0  0  0  0  0  0  0  0  0  0
   18.2766    3.8842   -2.8020 C   0  0  0  0  0  0  0  0  0  0  0  0
   18.1464    4.8884   -3.7697 C   0  0  0  0  0  0  0  0  0  0  0  0
   16.9316    5.2950   -4.1689 F   0  0  0  0  0  0  0  0  0  0  0  0
   19.2633    5.4685   -4.3733 C   0  0  0  0  0  0  0  0  0  0  0  0
   20.5444    5.0757   -3.9901 C   0  0  0  0  0  0  0  0  0  0  0  0
   20.6986    4.0918   -3.0160 C   0  0  0  0  0  0  0  0  0  0  0  0
   19.5742    3.4975   -2.4423 C   0  0  0  0  0  0  0  0  0  0  0  0
   19.7705    2.5481   -1.5148 F   0  0  0  0  0  0  0  0  0  0  0  0
   16.3072    2.4451   -2.8844 C   0  0  0  0  0  0  0  0  0  0  0  0
   15.1696    1.7388   -2.5154 N   0  0  0  0  0  0  0  0  0  0  0  0
   14.7699    1.1124   -3.5955 C   0  0  0  0  0  0  0  0  0  0  0  0
   13.6015    0.1826   -3.7749 C   0  0  0  0  0  0  0  0  0  0  0  0
   13.3114   -0.4216   -5.1012 C   0  0  0  0  0  0  0  0  0  0  0  0
   14.1786   -1.3565   -5.6785 C   0  0  0  0  0  0  0  0  0  0  0  0
   15.2937   -1.7306   -5.0340 F   0  0  0  0  0  0  0  0  0  0  0  0
   13.9428   -1.8878   -6.9478 C   0  0  0  0  0  0  0  0  0  0  0  0
   12.8026   -1.5150   -7.6566 C   0  0  0  0  0  0  0  0  0  0  0  0
   11.9102   -0.6063   -7.0919 C   0  0  0  0  0  0  0  0  0  0  0  0
   12.1747   -0.0601   -5.8351 C   0  0  0  0  0  0  0  0  0  0  0  0
   11.2977    0.8232   -5.3355 F   0  0  0  0  0  0  0  0  0  0  0  0
   12.8149   -0.0929   -2.7173 C   0  0  0  0  0  0  0  0  0  0  0  0
   11.6495   -0.9699   -2.7406 C   0  0  0  0  0  0  0  0  0  0  0  0
   11.0682   -0.9569   -1.5310 C   0  0  0  0  0  0  0  0  0  0  0  0
   11.8497   -0.1057   -0.6302 C   0  0  0  0  0  0  0  0  0  0  0  0
   12.8717    0.3585   -1.4202 N   0  0  0  0  0  0  0  0  0  0  0  0
   15.5990    1.3716   -4.7809 C   0  0  0  0  0  0  0  0  0  0  0  0
   16.5466    2.1518   -4.2817 C   0  0  0  0  0  0  0  0  0  0  0  0
   12.8878    2.2242    3.2500 C   0  0  0  0  0  0  0  0  0  0  0  0
   12.0196    1.2983    2.8692 C   0  0  0  0  0  0  0  0  0  0  0  0
    9.2896    0.3434    1.6788 C   0  0  0  0  0  0  0  0  0  0  0  0
    8.1276   -0.2157    2.1994 C   0  0  0  0  0  0  0  0  0  0  0  0
    0.3295   -2.1383   -1.3478 C   0  0  0  0  0  0  0  0  0  0  0  0
   -0.7520   -2.3155   -2.3971 C   0  0  0  0  0  0  0  0  0  0  0  0
   -1.5894   -1.0519   -2.2997 C   0  0  1  0  0  0  0  0  0  0  0  0
   -3.1977   -1.1690   -1.5012 S   0  0  0  0  0  0  0  0  0  0  0  0
   -3.1070   -2.3990   -0.2667 C   0  0  0  0  0  0  0  0  0  0  0  0
   -3.4544   -2.2847    1.0683 C   0  0  0  0  0  0  0  0  0  0  0  0
   -4.6630   -3.0588    1.1498 C   0  0  0  0  0  0  0  0  0  0  0  0
   -5.8015   -2.9980    1.9740 C   0  0  0  0  0  0  0  0  0  0  0  0
   -6.9694   -3.6440    1.5440 C   0  0  0  0  0  0  0  0  0  0  0  0
   -6.9826   -4.4149    0.3796 C   0  0  0  0  0  0  0  0  0  0  0  0
   -5.8275   -4.5943   -0.3821 C   0  0  0  0  0  0  0  0  0  0  0  0
   -4.7031   -3.8721    0.0157 C   0  0  0  0  0  0  0  0  0  0  0  0
   -3.5050   -3.6616   -0.6410 N   0  0  0  0  0  0  0  0  0  0  0  0
   -0.7476    0.0011   -1.5794 C   0  0  0  0  0  0  0  0  0  0  0  0
    1.1309   -0.5701   -3.3371 H   0  0  0  0  0  0  0  0  0  0  0  0
    2.4475   -0.6448   -2.3195 H   0  0  0  0  0  0  0  0  0  0  0  0
    1.6022    0.7810   -2.4845 H   0  0  0  0  0  0  0  0  0  0  0  0
    2.5219   -0.4005    1.4723 H   0  0  0  0  0  0  0  0  0  0  0  0
    2.8361   -2.1054   -0.8665 H   0  0  0  0  0  0  0  0  0  0  0  0
    3.3034   -2.5016    0.7845 H   0  0  0  0  0  0  0  0  0  0  0  0
    4.5173   -0.3377   -0.8854 H   0  0  0  0  0  0  0  0  0  0  0  0
    5.2176   -1.9378   -0.5587 H   0  0  0  0  0  0  0  0  0  0  0  0
    4.6467    0.1398    1.5030 H   0  0  0  0  0  0  0  0  0  0  0  0
    6.2285   -0.2268    0.7993 H   0  0  0  0  0  0  0  0  0  0  0  0
    4.6670   -2.0259    2.4703 H   0  0  0  0  0  0  0  0  0  0  0  0
    8.9106   -3.4602    1.8699 H   0  0  0  0  0  0  0  0  0  0  0  0
   11.0185   -2.4838    1.1614 H   0  0  0  0  0  0  0  0  0  0  0  0
   15.9660    3.4343    6.8642 H   0  0  0  0  0  0  0  0  0  0  0  0
   15.7496    5.8508    6.9902 H   0  0  0  0  0  0  0  0  0  0  0  0
   15.1055    7.1031    5.0108 H   0  0  0  0  0  0  0  0  0  0  0  0
   17.3967    4.8111    2.2118 H   0  0  0  0  0  0  0  0  0  0  0  0
   18.4641    4.8843   -0.1652 H   0  0  0  0  0  0  0  0  0  0  0  0
   15.0812    2.5019   -0.3301 H   0  0  0  0  0  0  0  0  0  0  0  0
   19.1405    6.1879   -5.1030 H   0  0  0  0  0  0  0  0  0  0  0  0
   21.3731    5.5107   -4.4250 H   0  0  0  0  0  0  0  0  0  0  0  0
   21.6437    3.8028   -2.7190 H   0  0  0  0  0  0  0  0  0  0  0  0
   14.6123   -2.5559   -7.3607 H   0  0  0  0  0  0  0  0  0  0  0  0
   12.6205   -1.9090   -8.5929 H   0  0  0  0  0  0  0  0  0  0  0  0
   11.0545   -0.3374   -7.6024 H   0  0  0  0  0  0  0  0  0  0  0  0
   11.3244   -1.5128   -3.5558 H   0  0  0  0  0  0  0  0  0  0  0  0
   10.2074   -1.4657   -1.2759 H   0  0  0  0  0  0  0  0  0  0  0  0
   13.5787    0.9582   -1.0890 H   0  0  0  0  0  0  0  0  0  0  0  0
   15.4756    1.0344   -5.7484 H   0  0  0  0  0  0  0  0  0  0  0  0
   17.3527    2.5054   -4.8204 H   0  0  0  0  0  0  0  0  0  0  0  0
   12.8816    2.6858    4.1730 H   0  0  0  0  0  0  0  0  0  0  0  0
   11.2652    0.8508    3.4130 H   0  0  0  0  0  0  0  0  0  0  0  0
    9.3752    1.3688    1.5991 H   0  0  0  0  0  0  0  0  0  0  0  0
    7.3947    0.3917    2.5981 H   0  0  0  0  0  0  0  0  0  0  0  0
   -0.0225   -2.4553   -0.3884 H   0  0  0  0  0  0  0  0  0  0  0  0
    1.1986   -2.7233   -1.5653 H   0  0  0  0  0  0  0  0  0  0  0  0
   -1.3461   -3.1799   -2.1853 H   0  0  0  0  0  0  0  0  0  0  0  0
   -0.3474   -2.4602   -3.3770 H   0  0  0  0  0  0  0  0  0  0  0  0
   -1.8369   -0.8047   -3.3109 H   0  0  0  0  0  0  0  0  0  0  0  0
   -2.9667   -1.7711    1.8189 H   0  0  0  0  0  0  0  0  0  0  0  0
   -5.7777   -2.4907    2.8724 H   0  0  0  0  0  0  0  0  0  0  0  0
   -7.8348   -3.5480    2.0980 H   0  0  0  0  0  0  0  0  0  0  0  0
   -7.8631   -4.8601    0.0769 H   0  0  0  0  0  0  0  0  0  0  0  0
   -5.8065   -5.2278   -1.1965 H   0  0  0  0  0  0  0  0  0  0  0  0
   -3.0374   -4.2816   -1.2461 H   0  0  0  0  0  0  0  0  0  0  0  0
   -0.6529    0.8769   -2.1868 H   0  0  0  0  0  0  0  0  0  0  0  0
   -1.2033    0.2948   -0.6569 H   0  0  0  0  0  0  0  0  0  0  0  0
  1 80  1  0  0  0  0
  1 81  1  0  0  0  0
  1 82  1  0  0  0  0
  2 66  1  0  0  0  0
  2 79  1  0  0  0  0
  2  3  1  1  0  0  0
  2  1  1  0  0  0  0
  3  4  2  0  0  0  0
  3  5  1  0  0  0  0
  5  6  1  0  0  0  0
  5 83  1  0  0  0  0
  6  7  1  0  0  0  0
  6 84  1  0  0  0  0
  6 85  1  0  0  0  0
  7  8  1  0  0  0  0
  7 86  1  0  0  0  0
  7 87  1  0  0  0  0
  8  9  1  0  0  0  0
  8 88  1  0  0  0  0
  8 89  1  0  0  0  0
  9 10  1  0  0  0  0
  9 90  1  0  0  0  0
 10 11  2  0  0  0  0
 10 12  1  0  0  0  0
 12 13  1  0  0  0  0
 12 65  2  0  0  0  0
 13 14  2  0  0  0  0
 13 91  1  0  0  0  0
 14 15  1  0  0  0  0
 14 92  1  0  0  0  0
 15 16  1  0  0  0  0
 15 64  2  0  0  0  0
 16 17  1  0  0  0  0
 16 58  2  0  0  0  0
 17 18  2  0  0  0  0
 17 63  1  0  0  0  0
 18 19  1  0  0  0  0
 19 20  2  0  0  0  0
 19 62  1  0  0  0  0
 20 21  1  0  0  0  0
 20 29  1  0  0  0  0
 21 22  1  0  0  0  0
 21 27  2  0  0  0  0
 22 23  1  0  0  0  0
 22 24  2  0  0  0  0
 24 25  1  0  0  0  0
 24 93  1  0  0  0  0
 25 26  2  0  0  0  0
 25 94  1  0  0  0  0
 26 27  1  0  0  0  0
 26 95  1  0  0  0  0
 27 28  1  0  0  0  0
 29 30  2  0  0  0  0
 29 33  1  0  0  0  0
 30 31  1  0  0  0  0
 30 96  1  0  0  0  0
 31 32  2  0  0  0  0
 31 97  1  0  0  0  0
 32 33  1  0  0  0  0
 32 34  1  0  0  0  0
 33 98  1  0  0  0  0
 34 35  1  0  0  0  0
 34 43  2  0  0  0  0
 35 36  1  0  0  0  0
 35 41  2  0  0  0  0
 36 37  1  0  0  0  0
 36 38  2  0  0  0  0
 38 39  1  0  0  0  0
 38 99  1  0  0  0  0
 39 40  2  0  0  0  0
 39100  1  0  0  0  0
 40 41  1  0  0  0  0
 40101  1  0  0  0  0
 41 42  1  0  0  0  0
 43 44  1  0  0  0  0
 43 61  1  0  0  0  0
 44 45  2  0  0  0  0
 45 46  1  0  0  0  0
 45 60  1  0  0  0  0
 46 47  1  0  0  0  0
 46 55  2  0  0  0  0
 47 48  1  0  0  0  0
 47 53  2  0  0  0  0
 48 49  1  0  0  0  0
 48 50  2  0  0  0  0
 50 51  1  0  0  0  0
 50102  1  0  0  0  0
 51 52  2  0  0  0  0
 51103  1  0  0  0  0
 52 53  1  0  0  0  0
 52104  1  0  0  0  0
 53 54  1  0  0  0  0
 55 56  1  0  0  0  0
 55 59  1  0  0  0  0
 56 57  2  0  0  0  0
 56105  1  0  0  0  0
 57 58  1  0  0  0  0
 57106  1  0  0  0  0
 58 59  1  0  0  0  0
 59107  1  0  0  0  0
 60 61  2  0  0  0  0
 60108  1  0  0  0  0
 61109  1  0  0  0  0
 62 63  2  0  0  0  0
 62110  1  0  0  0  0
 63111  1  0  0  0  0
 64 65  1  0  0  0  0
 64112  1  0  0  0  0
 65113  1  0  0  0  0
 66 67  1  0  0  0  0
 66114  1  0  0  0  0
 66115  1  0  0  0  0
 67 68  1  0  0  0  0
 67116  1  0  0  0  0
 67117  1  0  0  0  0
 68 69  1  0  0  0  0
 68 79  1  0  0  0  0
 68118  1  6  0  0  0
 69 70  1  0  0  0  0
 70 71  2  0  0  0  0
 70 78  1  0  0  0  0
 71 72  1  0  0  0  0
 71119  1  0  0  0  0
 72 73  1  0  0  0  0
 72 77  2  0  0  0  0
 73 74  2  0  0  0  0
 73120  1  0  0  0  0
 74 75  1  0  0  0  0
 74121  1  0  0  0  0
 75 76  2  0  0  0  0
 75122  1  0  0  0  0
 76 77  1  0  0  0  0
 76123  1  0  0  0  0
 77 78  1  0  0  0  0
 78124  1  0  0  0  0
 79125  1  0  0  0  0
 79126  1  0  0  0  0
M  CHG  1   1   1
M  END
$$$$
