1_2_8919
 OpenBabel04152301363D

128138  0  0  0  0  0  0  0  0999 V2000
   -0.7539    1.5321   -0.6712 C   0  0  0  0  0  0  0  0  0  0  0  0
   -0.2013    0.9571   -1.9444 C   0  0  0  0  0  0  0  0  0  0  0  0
   -0.5817   -0.1008   -2.4353 O   0  0  0  0  0  0  0  0  0  0  0  0
    0.7274    1.7984   -2.7115 C   0  0  0  0  0  0  0  0  0  0  0  0
    0.1339    2.5460   -3.7413 C   0  0  0  0  0  0  0  0  0  0  0  0
    0.8965    3.4340   -4.4984 C   0  0  0  0  0  0  0  0  0  0  0  0
    2.2596    3.5634   -4.2483 C   0  0  0  0  0  0  0  0  0  0  0  0
    2.8601    2.7992   -3.2461 C   0  0  0  0  0  0  0  0  0  0  0  0
    2.0951    1.9126   -2.4677 C   0  0  0  0  0  0  0  0  0  0  0  0
    2.9550    1.1099   -1.1458 S   0  0  0  0  0  0  0  0  0  0  0  0
    4.1851    0.5711   -1.6888 O   0  0  0  0  0  0  0  0  0  0  0  0
    2.9769    2.0860   -0.0771 O   0  0  0  0  0  0  0  0  0  0  0  0
    2.0121   -0.2083   -0.6371 N   0  0  0  0  0  0  0  0  0  0  0  0
    2.1392   -0.5517    0.7927 C   0  0  0  0  0  0  0  0  0  0  0  0
    0.8356   -1.1977    1.2240 C   0  0  0  0  0  0  0  0  0  0  0  0
    0.2905   -2.2279    0.2286 C   0  0  0  0  0  0  0  0  0  0  0  0
   -0.1331   -3.5081    0.9351 C   0  0  0  0  0  0  0  0  0  0  0  0
   -1.3139   -3.8612    0.9532 O   0  0  0  0  0  0  0  0  0  0  0  0
    0.7676   -4.3045    1.5719 N   0  0  0  0  0  0  0  0  0  0  0  0
    2.1989   -4.1652    1.7688 C   0  0  0  0  0  0  0  0  0  0  0  0
    2.5593   -3.8116    3.2075 C   0  0  0  0  0  0  0  0  0  0  0  0
    2.1260   -4.8574    4.2255 C   0  0  0  0  0  0  0  0  0  0  0  0
    2.8286   -6.1184    4.0500 N   0  0  0  0  0  0  0  0  0  0  0  0
    3.7401   -6.7417    4.8637 C   0  0  0  0  0  0  0  0  0  0  0  0
    4.3941   -7.6849    4.4279 O   0  0  0  0  0  0  0  0  0  0  0  0
    3.9470   -6.2843    6.2550 C   0  0  0  0  0  0  0  0  0  0  0  0
    5.2439   -6.2800    6.7765 C   0  0  0  0  0  0  0  0  0  0  0  0
    5.4624   -5.8658    8.0920 C   0  0  0  0  0  0  0  0  0  0  0  0
    4.3925   -5.4124    8.8798 C   0  0  0  0  0  0  0  0  0  0  0  0
    4.6045   -4.9724   10.2807 C   0  0  0  0  0  0  0  0  0  0  0  0
    3.9740   -5.7367   11.4134 C   0  0  0  0  0  0  0  0  0  0  0  0
    3.9995   -5.4843   12.6975 N   0  0  0  0  0  0  0  0  0  0  0  0
    3.2035   -6.4570   13.2893 C   0  0  0  0  0  0  0  0  0  0  0  0
    2.9576   -6.6662   14.6044 C   0  0  0  0  0  0  0  0  0  0  0  0
    2.0344   -7.7937   14.9615 C   0  0  0  0  0  0  0  0  0  0  0  0
    2.4153   -9.1346   14.8181 C   0  0  0  0  0  0  0  0  0  0  0  0
    3.6227   -9.4488   14.3244 F   0  0  0  0  0  0  0  0  0  0  0  0
    1.5457  -10.1789   15.1368 C   0  0  0  0  0  0  0  0  0  0  0  0
    0.2776   -9.8984   15.6414 C   0  0  0  0  0  0  0  0  0  0  0  0
   -0.1150   -8.5724   15.8139 C   0  0  0  0  0  0  0  0  0  0  0  0
    0.7544   -7.5364   15.4676 C   0  0  0  0  0  0  0  0  0  0  0  0
    0.3279   -6.2754   15.6337 F   0  0  0  0  0  0  0  0  0  0  0  0
    3.5315   -5.8850   15.6669 C   0  0  0  0  0  0  0  0  0  0  0  0
    3.4137   -6.0667   17.0336 C   0  0  0  0  0  0  0  0  0  0  0  0
    4.1311   -5.0489   17.6725 C   0  0  0  0  0  0  0  0  0  0  0  0
    4.7218   -4.2545   16.7029 C   0  0  0  0  0  0  0  0  0  0  0  0
    4.3404   -4.7749   15.4778 N   0  0  0  0  0  0  0  0  0  0  0  0
    5.5737   -3.1071   16.8792 C   0  0  0  0  0  0  0  0  0  0  0  0
    5.9129   -2.6949   18.2794 C   0  0  0  0  0  0  0  0  0  0  0  0
    5.3436   -1.5604   18.8704 C   0  0  0  0  0  0  0  0  0  0  0  0
    4.5007   -0.7820   18.1750 F   0  0  0  0  0  0  0  0  0  0  0  0
    5.6580   -1.1863   20.1774 C   0  0  0  0  0  0  0  0  0  0  0  0
    6.5352   -1.9638   20.9318 C   0  0  0  0  0  0  0  0  0  0  0  0
    7.1007   -3.1062   20.3684 C   0  0  0  0  0  0  0  0  0  0  0  0
    6.7956   -3.4580   19.0533 C   0  0  0  0  0  0  0  0  0  0  0  0
    7.3682   -4.5602   18.5465 F   0  0  0  0  0  0  0  0  0  0  0  0
    6.1112   -2.3736   15.8742 C   0  0  0  0  0  0  0  0  0  0  0  0
    5.9796   -2.5424   14.5026 N   0  0  0  0  0  0  0  0  0  0  0  0
    6.6721   -1.5740   13.9538 C   0  0  0  0  0  0  0  0  0  0  0  0
    6.9014   -1.2825   12.4982 C   0  0  0  0  0  0  0  0  0  0  0  0
    7.7143   -0.1170   12.0741 C   0  0  0  0  0  0  0  0  0  0  0  0
    9.1031   -0.1079   12.2454 C   0  0  0  0  0  0  0  0  0  0  0  0
    9.7181   -1.1503   12.8231 F   0  0  0  0  0  0  0  0  0  0  0  0
    9.8801    0.9835   11.8551 C   0  0  0  0  0  0  0  0  0  0  0  0
    9.2754    2.0884   11.2588 C   0  0  0  0  0  0  0  0  0  0  0  0
    7.8948    2.0962   11.0664 C   0  0  0  0  0  0  0  0  0  0  0  0
    7.1277    1.0060   11.4801 C   0  0  0  0  0  0  0  0  0  0  0  0
    5.8025    1.0519   11.2805 F   0  0  0  0  0  0  0  0  0  0  0  0
    6.3948   -2.1172   11.5720 C   0  0  0  0  0  0  0  0  0  0  0  0
    6.5608   -1.9815   10.1282 C   0  0  0  0  0  0  0  0  0  0  0  0
    5.9182   -2.9901    9.5172 C   0  0  0  0  0  0  0  0  0  0  0  0
    5.3139   -3.8560   10.5314 C   0  0  0  0  0  0  0  0  0  0  0  0
    5.6390   -3.2540   11.7200 N   0  0  0  0  0  0  0  0  0  0  0  0
    7.3069   -0.6657   14.9189 C   0  0  0  0  0  0  0  0  0  0  0  0
    6.9634   -1.2191   16.0736 C   0  0  0  0  0  0  0  0  0  0  0  0
    2.6706   -7.2753   12.2226 C   0  0  0  0  0  0  0  0  0  0  0  0
    3.1797   -6.9221   11.0522 C   0  0  0  0  0  0  0  0  0  0  0  0
    3.0970   -5.4182    8.3441 C   0  0  0  0  0  0  0  0  0  0  0  0
    2.8693   -5.9132    7.0638 C   0  0  0  0  0  0  0  0  0  0  0  0
    1.1465   -2.5311   -1.0106 C   0  0  0  0  0  0  0  0  0  0  0  0
    2.0915   -1.4255   -1.4880 C   0  0  0  0  0  0  0  0  0  0  0  0
   -1.4115    0.8219   -0.2150 H   0  0  0  0  0  0  0  0  0  0  0  0
   -1.2944    2.4293   -0.8901 H   0  0  0  0  0  0  0  0  0  0  0  0
    0.0506    1.7547   -0.0017 H   0  0  0  0  0  0  0  0  0  0  0  0
   -0.8732    2.4374   -3.9389 H   0  0  0  0  0  0  0  0  0  0  0  0
    0.4516    3.9940   -5.2424 H   0  0  0  0  0  0  0  0  0  0  0  0
    2.8260    4.2238   -4.8033 H   0  0  0  0  0  0  0  0  0  0  0  0
    3.8741    2.8857   -3.0751 H   0  0  0  0  0  0  0  0  0  0  0  0
    2.3157    0.3338    1.3668 H   0  0  0  0  0  0  0  0  0  0  0  0
    2.9605   -1.2196    0.9484 H   0  0  0  0  0  0  0  0  0  0  0  0
    0.1029   -0.4276    1.3462 H   0  0  0  0  0  0  0  0  0  0  0  0
    1.0370   -1.7233    2.1340 H   0  0  0  0  0  0  0  0  0  0  0  0
   -0.5643   -1.7346   -0.1848 H   0  0  0  0  0  0  0  0  0  0  0  0
    0.3806   -5.1181    1.9688 H   0  0  0  0  0  0  0  0  0  0  0  0
    2.5601   -3.3910    1.1245 H   0  0  0  0  0  0  0  0  0  0  0  0
    2.6512   -5.1083    1.5430 H   0  0  0  0  0  0  0  0  0  0  0  0
    2.0869   -2.8840    3.4552 H   0  0  0  0  0  0  0  0  0  0  0  0
    3.6267   -3.7540    3.2557 H   0  0  0  0  0  0  0  0  0  0  0  0
    1.0757   -5.0300    4.1165 H   0  0  0  0  0  0  0  0  0  0  0  0
    2.3600   -4.4837    5.2005 H   0  0  0  0  0  0  0  0  0  0  0  0
    2.6171   -6.5997    3.2176 H   0  0  0  0  0  0  0  0  0  0  0  0
    6.0380   -6.5822    6.1907 H   0  0  0  0  0  0  0  0  0  0  0  0
    6.4153   -5.8931    8.4872 H   0  0  0  0  0  0  0  0  0  0  0  0
    1.8417  -11.1579   14.9988 H   0  0  0  0  0  0  0  0  0  0  0  0
   -0.3663  -10.6670   15.8856 H   0  0  0  0  0  0  0  0  0  0  0  0
   -1.0483   -8.3563   16.1976 H   0  0  0  0  0  0  0  0  0  0  0  0
    2.8879   -6.8219   17.5008 H   0  0  0  0  0  0  0  0  0  0  0  0
    4.2072   -4.9131   18.6927 H   0  0  0  0  0  0  0  0  0  0  0  0
    4.6045   -4.4106   14.6021 H   0  0  0  0  0  0  0  0  0  0  0  0
    5.2414   -0.3347   20.5852 H   0  0  0  0  0  0  0  0  0  0  0  0
    6.7645   -1.6951   21.9015 H   0  0  0  0  0  0  0  0  0  0  0  0
    7.7445   -3.6913   20.9235 H   0  0  0  0  0  0  0  0  0  0  0  0
   10.9007    0.9724   12.0078 H   0  0  0  0  0  0  0  0  0  0  0  0
    9.8459    2.8954   10.9617 H   0  0  0  0  0  0  0  0  0  0  0  0
    7.4403    2.9073   10.6185 H   0  0  0  0  0  0  0  0  0  0  0  0
    7.0871   -1.2314    9.6535 H   0  0  0  0  0  0  0  0  0  0  0  0
    5.8597   -3.1320    8.4967 H   0  0  0  0  0  0  0  0  0  0  0  0
    5.3573   -3.6037   12.5961 H   0  0  0  0  0  0  0  0  0  0  0  0
    7.8715    0.1803   14.7439 H   0  0  0  0  0  0  0  0  0  0  0  0
    7.2648   -0.8716   16.9974 H   0  0  0  0  0  0  0  0  0  0  0  0
    1.9842   -8.0343   12.3559 H   0  0  0  0  0  0  0  0  0  0  0  0
    3.0526   -7.3630   10.1278 H   0  0  0  0  0  0  0  0  0  0  0  0
    2.3088   -5.0538    8.9017 H   0  0  0  0  0  0  0  0  0  0  0  0
    1.9039   -6.0064    6.7112 H   0  0  0  0  0  0  0  0  0  0  0  0
    0.4798   -2.7566   -1.8165 H   0  0  0  0  0  0  0  0  0  0  0  0
    1.7863   -3.3368   -0.7168 H   0  0  0  0  0  0  0  0  0  0  0  0
    3.0948   -1.7967   -1.4647 H   0  0  0  0  0  0  0  0  0  0  0  0
    1.7991   -1.1509   -2.4800 H   0  0  0  0  0  0  0  0  0  0  0  0
  1  2  1  0  0  0  0
  1 82  1  0  0  0  0
  1 83  1  0  0  0  0
  1 84  1  0  0  0  0
  2  3  2  0  0  0  0
  2  4  1  0  0  0  0
  4  5  1  0  0  0  0
  4  9  2  0  0  0  0
  5  6  2  0  0  0  0
  5 85  1  0  0  0  0
  6  7  1  0  0  0  0
  6 86  1  0  0  0  0
  7  8  2  0  0  0  0
  7 87  1  0  0  0  0
  8  9  1  0  0  0  0
  8 88  1  0  0  0  0
  9 10  1  0  0  0  0
 10 11  2  0  0  0  0
 10 12  2  0  0  0  0
 10 13  1  0  0  0  0
 13 14  1  0  0  0  0
 13 81  1  0  0  0  0
 14 15  1  0  0  0  0
 14 89  1  0  0  0  0
 14 90  1  0  0  0  0
 15 16  1  0  0  0  0
 15 91  1  0  0  0  0
 15 92  1  0  0  0  0
 16 17  1  0  0  0  0
 16 80  1  0  0  0  0
 16 93  1  0  0  0  0
 17 18  2  0  0  0  0
 17 19  1  0  0  0  0
 19 20  1  0  0  0  0
 19 94  1  0  0  0  0
 20 21  1  0  0  0  0
 20 95  1  0  0  0  0
 20 96  1  0  0  0  0
 21 22  1  0  0  0  0
 21 97  1  0  0  0  0
 21 98  1  0  0  0  0
 22 23  1  0  0  0  0
 22 99  1  0  0  0  0
 22100  1  0  0  0  0
 23 24  1  0  0  0  0
 23101  1  0  0  0  0
 24 25  2  0  0  0  0
 24 26  1  0  0  0  0
 26 27  1  0  0  0  0
 26 79  2  0  0  0  0
 27 28  2  0  0  0  0
 27102  1  0  0  0  0
 28 29  1  0  0  0  0
 28103  1  0  0  0  0
 29 30  1  0  0  0  0
 29 78  2  0  0  0  0
 30 31  1  0  0  0  0
 30 72  2  0  0  0  0
 31 32  2  0  0  0  0
 31 77  1  0  0  0  0
 32 33  1  0  0  0  0
 33 34  2  0  0  0  0
 33 76  1  0  0  0  0
 34 35  1  0  0  0  0
 34 43  1  0  0  0  0
 35 36  1  0  0  0  0
 35 41  2  0  0  0  0
 36 37  1  0  0  0  0
 36 38  2  0  0  0  0
 38 39  1  0  0  0  0
 38104  1  0  0  0  0
 39 40  2  0  0  0  0
 39105  1  0  0  0  0
 40 41  1  0  0  0  0
 40106  1  0  0  0  0
 41 42  1  0  0  0  0
 43 44  2  0  0  0  0
 43 47  1  0  0  0  0
 44 45  1  0  0  0  0
 44107  1  0  0  0  0
 45 46  2  0  0  0  0
 45108  1  0  0  0  0
 46 47  1  0  0  0  0
 46 48  1  0  0  0  0
 47109  1  0  0  0  0
 48 49  1  0  0  0  0
 48 57  2  0  0  0  0
 49 50  1  0  0  0  0
 49 55  2  0  0  0  0
 50 51  1  0  0  0  0
 50 52  2  0  0  0  0
 52 53  1  0  0  0  0
 52110  1  0  0  0  0
 53 54  2  0  0  0  0
 53111  1  0  0  0  0
 54 55  1  0  0  0  0
 54112  1  0  0  0  0
 55 56  1  0  0  0  0
 57 58  1  0  0  0  0
 57 75  1  0  0  0  0
 58 59  2  0  0  0  0
 59 60  1  0  0  0  0
 59 74  1  0  0  0  0
 60 61  1  0  0  0  0
 60 69  2  0  0  0  0
 61 62  1  0  0  0  0
 61 67  2  0  0  0  0
 62 63  1  0  0  0  0
 62 64  2  0  0  0  0
 64 65  1  0  0  0  0
 64113  1  0  0  0  0
 65 66  2  0  0  0  0
 65114  1  0  0  0  0
 66 67  1  0  0  0  0
 66115  1  0  0  0  0
 67 68  1  0  0  0  0
 69 70  1  0  0  0  0
 69 73  1  0  0  0  0
 70 71  2  0  0  0  0
 70116  1  0  0  0  0
 71 72  1  0  0  0  0
 71117  1  0  0  0  0
 72 73  1  0  0  0  0
 73118  1  0  0  0  0
 74 75  2  0  0  0  0
 74119  1  0  0  0  0
 75120  1  0  0  0  0
 76 77  2  0  0  0  0
 76121  1  0  0  0  0
 77122  1  0  0  0  0
 78 79  1  0  0  0  0
 78123  1  0  0  0  0
 79124  1  0  0  0  0
 80 81  1  0  0  0  0
 80125  1  0  0  0  0
 80126  1  0  0  0  0
 81127  1  0  0  0  0
 81128  1  0  0  0  0
M  END
$$$$
