1_2_8604
 OpenBabel04152301363D

112121  0  0  0  0  0  0  0  0999 V2000
    1.2418   -0.7501   -0.3718 O   0  0  0  0  0  0  0  0  0  0  0  0
    2.3874   -0.4360   -0.0613 C   0  0  0  0  0  0  0  0  0  0  0  0
    3.2434    0.2559   -1.0440 C   0  0  0  0  0  0  0  0  0  0  0  0
    4.2325    1.1107   -0.7401 C   0  0  0  0  0  0  0  0  0  0  0  0
    4.9290    1.8479   -1.8219 C   0  0  0  0  0  0  0  0  0  0  0  0
    6.1565    1.8136   -1.8587 O   0  0  0  0  0  0  0  0  0  0  0  0
    4.1990    2.4888   -2.7794 N   0  0  0  0  0  0  0  0  0  0  0  0
    2.8427    2.8168   -2.8070 C   0  0  0  0  0  0  0  0  0  0  0  0
    2.1117    3.0961   -1.6565 C   0  0  0  0  0  0  0  0  0  0  0  0
    0.7297    3.2233   -1.7518 C   0  0  0  0  0  0  0  0  0  0  0  0
    0.1253    3.0983   -2.9938 C   0  0  0  0  0  0  0  0  0  0  0  0
    0.9394    2.9026   -4.0965 C   0  0  0  0  0  0  0  0  0  0  0  0
    2.2854    2.7873   -4.0316 N   0  0  0  0  0  0  0  0  0  0  0  0
    2.9650   -0.7263    1.1414 N   0  0  0  0  0  0  0  0  0  0  0  0
    2.2560   -1.4844    2.1511 C   0  0  0  0  0  0  0  0  0  0  0  0
    2.4634   -2.9861    1.9826 C   0  0  0  0  0  0  0  0  0  0  0  0
    3.9253   -3.4204    2.0444 C   0  0  0  0  0  0  0  0  0  0  0  0
    4.5558   -3.1137    3.3215 N   0  0  0  0  0  0  0  0  0  0  0  0
    5.2367   -3.9316    4.1868 C   0  0  0  0  0  0  0  0  0  0  0  0
    5.5674   -3.5082    5.2924 O   0  0  0  0  0  0  0  0  0  0  0  0
    5.5465   -5.3263    3.8113 C   0  0  0  0  0  0  0  0  0  0  0  0
    5.3138   -6.3385    4.7467 C   0  0  0  0  0  0  0  0  0  0  0  0
    5.5232   -7.6722    4.3914 C   0  0  0  0  0  0  0  0  0  0  0  0
    5.9309   -8.0024    3.0890 C   0  0  0  0  0  0  0  0  0  0  0  0
    6.0261   -9.4172    2.6497 C   0  0  0  0  0  0  0  0  0  0  0  0
    7.3504  -10.0085    2.2595 C   0  0  0  0  0  0  0  0  0  0  0  0
    7.6131  -11.1929    1.7680 N   0  0  0  0  0  0  0  0  0  0  0  0
    8.9846  -11.2173    1.5527 C   0  0  0  0  0  0  0  0  0  0  0  0
    9.7516  -12.2386    1.1014 C   0  0  0  0  0  0  0  0  0  0  0  0
   11.2255  -11.9896    0.9658 C   0  0  0  0  0  0  0  0  0  0  0  0
   12.0580  -11.8591    2.0851 C   0  0  0  0  0  0  0  0  0  0  0  0
   11.5441  -11.9054    3.3236 F   0  0  0  0  0  0  0  0  0  0  0  0
   13.4311  -11.6447    1.9529 C   0  0  0  0  0  0  0  0  0  0  0  0
   14.0075  -11.5878    0.6855 C   0  0  0  0  0  0  0  0  0  0  0  0
   13.2019  -11.7322   -0.4422 C   0  0  0  0  0  0  0  0  0  0  0  0
   11.8263  -11.9204   -0.2975 C   0  0  0  0  0  0  0  0  0  0  0  0
   11.0884  -12.0444   -1.4110 F   0  0  0  0  0  0  0  0  0  0  0  0
    9.2456  -13.5389    0.7455 C   0  0  0  0  0  0  0  0  0  0  0  0
    9.9528  -14.6573    0.3387 C   0  0  0  0  0  0  0  0  0  0  0  0
    9.0365  -15.6738    0.0487 C   0  0  0  0  0  0  0  0  0  0  0  0
    7.7617  -15.2038    0.3194 C   0  0  0  0  0  0  0  0  0  0  0  0
    7.9049  -13.8932    0.7463 N   0  0  0  0  0  0  0  0  0  0  0  0
    6.5044  -15.8956    0.1921 C   0  0  0  0  0  0  0  0  0  0  0  0
    6.5240  -17.3054   -0.3209 C   0  0  0  0  0  0  0  0  0  0  0  0
    6.0608  -17.6300   -1.6023 C   0  0  0  0  0  0  0  0  0  0  0  0
    5.5396  -16.6829   -2.3970 F   0  0  0  0  0  0  0  0  0  0  0  0
    6.0914  -18.9421   -2.0776 C   0  0  0  0  0  0  0  0  0  0  0  0
    6.6191  -19.9581   -1.2829 C   0  0  0  0  0  0  0  0  0  0  0  0
    7.1005  -19.6556   -0.0107 C   0  0  0  0  0  0  0  0  0  0  0  0
    7.0408  -18.3445    0.4632 C   0  0  0  0  0  0  0  0  0  0  0  0
    7.5070  -18.1002    1.6972 F   0  0  0  0  0  0  0  0  0  0  0  0
    5.2974  -15.3747    0.5217 C   0  0  0  0  0  0  0  0  0  0  0  0
    4.9988  -14.1164    1.0272 N   0  0  0  0  0  0  0  0  0  0  0  0
    3.6956  -14.0845    1.1634 C   0  0  0  0  0  0  0  0  0  0  0  0
    2.8246  -12.9767    1.6849 C   0  0  0  0  0  0  0  0  0  0  0  0
    1.3523  -13.1458    1.7661 C   0  0  0  0  0  0  0  0  0  0  0  0
    0.7773  -14.0183    2.6969 C   0  0  0  0  0  0  0  0  0  0  0  0
    1.5561  -14.7294    3.5254 F   0  0  0  0  0  0  0  0  0  0  0  0
   -0.6040  -14.2046    2.7679 C   0  0  0  0  0  0  0  0  0  0  0  0
   -1.4458  -13.4922    1.9159 C   0  0  0  0  0  0  0  0  0  0  0  0
   -0.8972  -12.6057    0.9912 C   0  0  0  0  0  0  0  0  0  0  0  0
    0.4873  -12.4481    0.9147 C   0  0  0  0  0  0  0  0  0  0  0  0
    0.9763  -11.5926    0.0049 F   0  0  0  0  0  0  0  0  0  0  0  0
    3.3925  -11.8237    2.0850 C   0  0  0  0  0  0  0  0  0  0  0  0
    2.6726  -10.6640    2.6008 C   0  0  0  0  0  0  0  0  0  0  0  0
    3.5485   -9.6750    2.8376 C   0  0  0  0  0  0  0  0  0  0  0  0
    4.9000  -10.1472    2.5295 C   0  0  0  0  0  0  0  0  0  0  0  0
    4.7107  -11.4368    2.0998 N   0  0  0  0  0  0  0  0  0  0  0  0
    3.0161  -15.3168    0.7391 C   0  0  0  0  0  0  0  0  0  0  0  0
    4.0407  -16.0831    0.3929 C   0  0  0  0  0  0  0  0  0  0  0  0
    9.4934   -9.9144    1.9260 C   0  0  0  0  0  0  0  0  0  0  0  0
    8.5324   -9.1485    2.4230 C   0  0  0  0  0  0  0  0  0  0  0  0
    6.2122   -6.9734    2.1771 C   0  0  0  0  0  0  0  0  0  0  0  0
    6.0643   -5.6398    2.5517 C   0  0  0  0  0  0  0  0  0  0  0  0
    3.0678    0.0678   -2.0434 H   0  0  0  0  0  0  0  0  0  0  0  0
    4.5076    1.2546    0.2441 H   0  0  0  0  0  0  0  0  0  0  0  0
    4.7087    2.7630   -3.5758 H   0  0  0  0  0  0  0  0  0  0  0  0
    2.5870    3.2071   -0.7472 H   0  0  0  0  0  0  0  0  0  0  0  0
    0.1621    3.4081   -0.9100 H   0  0  0  0  0  0  0  0  0  0  0  0
   -0.9006    3.1496   -3.0931 H   0  0  0  0  0  0  0  0  0  0  0  0
    0.4919    2.8410   -5.0244 H   0  0  0  0  0  0  0  0  0  0  0  0
    3.8805   -0.4144    1.3255 H   0  0  0  0  0  0  0  0  0  0  0  0
    1.2107   -1.2686    2.0756 H   0  0  0  0  0  0  0  0  0  0  0  0
    2.6393   -1.2015    3.1092 H   0  0  0  0  0  0  0  0  0  0  0  0
    2.0658   -3.2764    1.0326 H   0  0  0  0  0  0  0  0  0  0  0  0
    1.9637   -3.4619    2.8004 H   0  0  0  0  0  0  0  0  0  0  0  0
    4.4637   -2.9173    1.2686 H   0  0  0  0  0  0  0  0  0  0  0  0
    3.9493   -4.4831    1.9222 H   0  0  0  0  0  0  0  0  0  0  0  0
    4.4817   -2.1746    3.6075 H   0  0  0  0  0  0  0  0  0  0  0  0
    4.9883   -6.1007    5.6967 H   0  0  0  0  0  0  0  0  0  0  0  0
    5.3777   -8.4187    5.0890 H   0  0  0  0  0  0  0  0  0  0  0  0
   14.0188  -11.5284    2.7932 H   0  0  0  0  0  0  0  0  0  0  0  0
   15.0237  -11.4398    0.5828 H   0  0  0  0  0  0  0  0  0  0  0  0
   13.6221  -11.7000   -1.3842 H   0  0  0  0  0  0  0  0  0  0  0  0
   10.9795  -14.7289    0.2625 H   0  0  0  0  0  0  0  0  0  0  0  0
    9.2704  -16.6141   -0.3065 H   0  0  0  0  0  0  0  0  0  0  0  0
    7.1642  -13.3011    1.0110 H   0  0  0  0  0  0  0  0  0  0  0  0
    5.7235  -19.1597   -3.0169 H   0  0  0  0  0  0  0  0  0  0  0  0
    6.6531  -20.9279   -1.6342 H   0  0  0  0  0  0  0  0  0  0  0  0
    7.5009  -20.4007    0.5806 H   0  0  0  0  0  0  0  0  0  0  0  0
   -1.0014  -14.8689    3.4503 H   0  0  0  0  0  0  0  0  0  0  0  0
   -2.4684  -13.6203    1.9694 H   0  0  0  0  0  0  0  0  0  0  0  0
   -1.5140  -12.0664    0.3637 H   0  0  0  0  0  0  0  0  0  0  0  0
    1.6540  -10.6125    2.7582 H   0  0  0  0  0  0  0  0  0  0  0  0
    3.3080   -8.7323    3.1818 H   0  0  0  0  0  0  0  0  0  0  0  0
    5.4492  -12.0284    1.8280 H   0  0  0  0  0  0  0  0  0  0  0  0
    2.0065  -15.5295    0.7166 H   0  0  0  0  0  0  0  0  0  0  0  0
    3.9540  -17.0602    0.0723 H   0  0  0  0  0  0  0  0  0  0  0  0
   10.4767   -9.6201    1.8191 H   0  0  0  0  0  0  0  0  0  0  0  0
    8.5967   -8.1982    2.8204 H   0  0  0  0  0  0  0  0  0  0  0  0
    6.5305   -7.2060    1.2234 H   0  0  0  0  0  0  0  0  0  0  0  0
    6.3362   -4.8860    1.9013 H   0  0  0  0  0  0  0  0  0  0  0  0
  1  2  2  0  0  0  0
  2  3  1  0  0  0  0
  2 14  1  0  0  0  0
  3  4  2  0  0  0  0
  3 75  1  0  0  0  0
  4  5  1  0  0  0  0
  4 76  1  0  0  0  0
  5  6  2  0  0  0  0
  5  7  1  0  0  0  0
  7  8  1  0  0  0  0
  7 77  1  0  0  0  0
  8  9  1  0  0  0  0
  8 13  2  0  0  0  0
  9 10  2  0  0  0  0
  9 78  1  0  0  0  0
 10 11  1  0  0  0  0
 10 79  1  0  0  0  0
 11 12  2  0  0  0  0
 11 80  1  0  0  0  0
 12 13  1  0  0  0  0
 12 81  1  0  0  0  0
 14 15  1  0  0  0  0
 14 82  1  0  0  0  0
 15 16  1  0  0  0  0
 15 83  1  0  0  0  0
 15 84  1  0  0  0  0
 16 17  1  0  0  0  0
 16 85  1  0  0  0  0
 16 86  1  0  0  0  0
 17 18  1  0  0  0  0
 17 87  1  0  0  0  0
 17 88  1  0  0  0  0
 18 19  1  0  0  0  0
 18 89  1  0  0  0  0
 19 20  2  0  0  0  0
 19 21  1  0  0  0  0
 21 22  1  0  0  0  0
 21 74  2  0  0  0  0
 22 23  2  0  0  0  0
 22 90  1  0  0  0  0
 23 24  1  0  0  0  0
 23 91  1  0  0  0  0
 24 25  1  0  0  0  0
 24 73  2  0  0  0  0
 25 26  1  0  0  0  0
 25 67  2  0  0  0  0
 26 27  2  0  0  0  0
 26 72  1  0  0  0  0
 27 28  1  0  0  0  0
 28 29  2  0  0  0  0
 28 71  1  0  0  0  0
 29 30  1  0  0  0  0
 29 38  1  0  0  0  0
 30 31  1  0  0  0  0
 30 36  2  0  0  0  0
 31 32  1  0  0  0  0
 31 33  2  0  0  0  0
 33 34  1  0  0  0  0
 33 92  1  0  0  0  0
 34 35  2  0  0  0  0
 34 93  1  0  0  0  0
 35 36  1  0  0  0  0
 35 94  1  0  0  0  0
 36 37  1  0  0  0  0
 38 39  2  0  0  0  0
 38 42  1  0  0  0  0
 39 40  1  0  0  0  0
 39 95  1  0  0  0  0
 40 41  2  0  0  0  0
 40 96  1  0  0  0  0
 41 42  1  0  0  0  0
 41 43  1  0  0  0  0
 42 97  1  0  0  0  0
 43 44  1  0  0  0  0
 43 52  2  0  0  0  0
 44 45  1  0  0  0  0
 44 50  2  0  0  0  0
 45 46  1  0  0  0  0
 45 47  2  0  0  0  0
 47 48  1  0  0  0  0
 47 98  1  0  0  0  0
 48 49  2  0  0  0  0
 48 99  1  0  0  0  0
 49 50  1  0  0  0  0
 49100  1  0  0  0  0
 50 51  1  0  0  0  0
 52 53  1  0  0  0  0
 52 70  1  0  0  0  0
 53 54  2  0  0  0  0
 54 55  1  0  0  0  0
 54 69  1  0  0  0  0
 55 56  1  0  0  0  0
 55 64  2  0  0  0  0
 56 57  1  0  0  0  0
 56 62  2  0  0  0  0
 57 58  1  0  0  0  0
 57 59  2  0  0  0  0
 59 60  1  0  0  0  0
 59101  1  0  0  0  0
 60 61  2  0  0  0  0
 60102  1  0  0  0  0
 61 62  1  0  0  0  0
 61103  1  0  0  0  0
 62 63  1  0  0  0  0
 64 65  1  0  0  0  0
 64 68  1  0  0  0  0
 65 66  2  0  0  0  0
 65104  1  0  0  0  0
 66 67  1  0  0  0  0
 66105  1  0  0  0  0
 67 68  1  0  0  0  0
 68106  1  0  0  0  0
 69 70  2  0  0  0  0
 69107  1  0  0  0  0
 70108  1  0  0  0  0
 71 72  2  0  0  0  0
 71109  1  0  0  0  0
 72110  1  0  0  0  0
 73 74  1  0  0  0  0
 73111  1  0  0  0  0
 74112  1  0  0  0  0
M  END
$$$$
