1_2_6360
 OpenBabel04152301353D

126136  0  0  0  0  0  0  0  0999 V2000
    2.7857   -0.4546   -0.1009 C   0  0  0  0  0  0  0  0  0  0  0  0
    1.3530   -0.4028    0.3346 C   0  0  0  0  0  0  0  0  0  0  0  0
    0.4196   -1.2666   -0.2335 C   0  0  0  0  0  0  0  0  0  0  0  0
   -0.9281   -1.1313    0.0990 C   0  0  0  0  0  0  0  0  0  0  0  0
   -1.8382   -1.9389   -0.6120 N   0  0  0  0  0  0  0  0  0  0  0  0
   -3.1252   -1.8391   -1.0235 C   0  0  0  0  0  0  0  0  0  0  0  0
   -3.6853   -2.8843   -1.3769 O   0  0  0  0  0  0  0  0  0  0  0  0
   -3.8586   -0.6968   -1.0635 N   0  0  0  0  0  0  0  0  0  0  0  0
   -3.4490    0.5823   -0.8030 C   0  0  0  0  0  0  0  0  0  0  0  0
   -2.3218    1.1713   -1.9327 S   0  0  0  0  0  0  0  0  0  0  0  0
   -2.0428    2.5663   -1.0092 C   0  0  0  0  0  0  0  0  0  0  0  0
   -0.8995    3.4531   -1.3771 C   0  0  0  0  0  0  0  0  0  0  0  0
   -2.9600    2.6920    0.0253 C   0  0  0  0  0  0  0  0  0  0  0  0
   -2.9634    3.8436    0.9906 C   0  0  0  0  0  0  0  0  0  0  0  0
   -3.8694    1.5267    0.1248 C   0  0  0  0  0  0  0  0  0  0  0  0
   -4.9180    1.4525    1.1742 C   0  0  0  0  0  0  0  0  0  0  0  0
   -5.3821    2.4852    1.6690 O   0  0  0  0  0  0  0  0  0  0  0  0
   -5.4161    0.2946    1.7308 N   0  0  0  0  0  0  0  0  0  0  0  0
   -5.1969   -1.0927    1.4127 C   0  0  0  0  0  0  0  0  0  0  0  0
   -5.2790   -2.0929    2.5443 C   0  0  0  0  0  0  0  0  0  0  0  0
   -6.5925   -2.1580    3.2891 C   0  0  0  0  0  0  0  0  0  0  0  0
   -7.7201   -2.5792    2.4724 N   0  0  0  0  0  0  0  0  0  0  0  0
   -8.4625   -3.7359    2.4611 C   0  0  0  0  0  0  0  0  0  0  0  0
   -9.3152   -3.8824    1.5836 O   0  0  0  0  0  0  0  0  0  0  0  0
   -8.2447   -4.8212    3.4478 C   0  0  0  0  0  0  0  0  0  0  0  0
   -8.4397   -6.1470    3.0456 C   0  0  0  0  0  0  0  0  0  0  0  0
   -8.2062   -7.1936    3.9430 C   0  0  0  0  0  0  0  0  0  0  0  0
   -7.6938   -6.9329    5.2244 C   0  0  0  0  0  0  0  0  0  0  0  0
   -7.3929   -8.0348    6.1761 C   0  0  0  0  0  0  0  0  0  0  0  0
   -8.0852   -8.1004    7.5141 C   0  0  0  0  0  0  0  0  0  0  0  0
   -7.9658   -8.9933    8.4653 N   0  0  0  0  0  0  0  0  0  0  0  0
   -8.7850   -8.5569    9.5000 C   0  0  0  0  0  0  0  0  0  0  0  0
   -9.0907   -9.1777   10.6645 C   0  0  0  0  0  0  0  0  0  0  0  0
  -10.0442   -8.4748   11.5915 C   0  0  0  0  0  0  0  0  0  0  0  0
  -11.3930   -8.2783   11.2592 C   0  0  0  0  0  0  0  0  0  0  0  0
  -11.8715   -8.7019   10.0792 F   0  0  0  0  0  0  0  0  0  0  0  0
  -12.2655   -7.5945   12.1082 C   0  0  0  0  0  0  0  0  0  0  0  0
  -11.8128   -7.1271   13.3396 C   0  0  0  0  0  0  0  0  0  0  0  0
  -10.4854   -7.3379   13.7068 C   0  0  0  0  0  0  0  0  0  0  0  0
   -9.6138   -7.9930   12.8341 C   0  0  0  0  0  0  0  0  0  0  0  0
   -8.3395   -8.1505   13.2226 F   0  0  0  0  0  0  0  0  0  0  0  0
   -8.5631  -10.4585   11.0538 C   0  0  0  0  0  0  0  0  0  0  0  0
   -8.8443  -11.2005   12.1871 C   0  0  0  0  0  0  0  0  0  0  0  0
   -8.0524  -12.3536   12.1612 C   0  0  0  0  0  0  0  0  0  0  0  0
   -7.3249  -12.3604   10.9815 C   0  0  0  0  0  0  0  0  0  0  0  0
   -7.6397  -11.1864   10.3173 N   0  0  0  0  0  0  0  0  0  0  0  0
   -6.4163  -13.3673   10.4932 C   0  0  0  0  0  0  0  0  0  0  0  0
   -6.2476  -14.6162   11.3100 C   0  0  0  0  0  0  0  0  0  0  0  0
   -5.0558  -14.9123   11.9835 C   0  0  0  0  0  0  0  0  0  0  0  0
   -3.9993  -14.0904   11.8905 F   0  0  0  0  0  0  0  0  0  0  0  0
   -4.9118  -16.0832   12.7299 C   0  0  0  0  0  0  0  0  0  0  0  0
   -5.9814  -16.9685   12.8501 C   0  0  0  0  0  0  0  0  0  0  0  0
   -7.1856  -16.6813   12.2116 C   0  0  0  0  0  0  0  0  0  0  0  0
   -7.3068  -15.5241   11.4419 C   0  0  0  0  0  0  0  0  0  0  0  0
   -8.4805  -15.2961   10.8332 F   0  0  0  0  0  0  0  0  0  0  0  0
   -5.7241  -13.2909    9.3295 C   0  0  0  0  0  0  0  0  0  0  0  0
   -5.7301  -12.2845    8.3721 N   0  0  0  0  0  0  0  0  0  0  0  0
   -4.8939  -12.6709    7.4389 C   0  0  0  0  0  0  0  0  0  0  0  0
   -4.5376  -11.9955    6.1441 C   0  0  0  0  0  0  0  0  0  0  0  0
   -3.5941  -12.6286    5.1871 C   0  0  0  0  0  0  0  0  0  0  0  0
   -3.9379  -13.8029    4.5061 C   0  0  0  0  0  0  0  0  0  0  0  0
   -5.1235  -14.3893    4.7281 F   0  0  0  0  0  0  0  0  0  0  0  0
   -3.0587  -14.4150    3.6113 C   0  0  0  0  0  0  0  0  0  0  0  0
   -1.8155  -13.8399    3.3563 C   0  0  0  0  0  0  0  0  0  0  0  0
   -1.4571  -12.6622    4.0093 C   0  0  0  0  0  0  0  0  0  0  0  0
   -2.3357  -12.0760    4.9221 C   0  0  0  0  0  0  0  0  0  0  0  0
   -1.9499  -10.9461    5.5330 F   0  0  0  0  0  0  0  0  0  0  0  0
   -5.1285  -10.8271    5.8310 C   0  0  0  0  0  0  0  0  0  0  0  0
   -4.9116  -10.0746    4.6001 C   0  0  0  0  0  0  0  0  0  0  0  0
   -5.6767   -8.9723    4.6210 C   0  0  0  0  0  0  0  0  0  0  0  0
   -6.4695   -8.9613    5.8523 C   0  0  0  0  0  0  0  0  0  0  0  0
   -6.0485  -10.0800    6.5264 N   0  0  0  0  0  0  0  0  0  0  0  0
   -4.2331  -13.9530    7.7168 C   0  0  0  0  0  0  0  0  0  0  0  0
   -4.8093  -14.3096    8.8557 C   0  0  0  0  0  0  0  0  0  0  0  0
   -9.3293   -7.2805    9.0981 C   0  0  0  0  0  0  0  0  0  0  0  0
   -9.0075   -7.0018    7.8453 C   0  0  0  0  0  0  0  0  0  0  0  0
   -7.5057   -5.6023    5.6126 C   0  0  0  0  0  0  0  0  0  0  0  0
   -7.8829   -4.5627    4.7689 C   0  0  0  0  0  0  0  0  0  0  0  0
   -1.2640   -0.2325    1.1010 C   0  0  0  0  0  0  0  0  0  0  0  0
   -0.2790    0.6045    1.6033 C   0  0  0  0  0  0  0  0  0  0  0  0
    1.0138    0.5514    1.2285 N   0  0  0  0  0  0  0  0  0  0  0  0
    2.9161   -1.2501   -0.8045 H   0  0  0  0  0  0  0  0  0  0  0  0
    3.4113   -0.6251    0.7503 H   0  0  0  0  0  0  0  0  0  0  0  0
    3.0529    0.4745   -0.5595 H   0  0  0  0  0  0  0  0  0  0  0  0
    0.7223   -1.9995   -0.8940 H   0  0  0  0  0  0  0  0  0  0  0  0
   -1.4349   -2.7966   -0.8783 H   0  0  0  0  0  0  0  0  0  0  0  0
   -4.8055   -0.8026   -1.3115 H   0  0  0  0  0  0  0  0  0  0  0  0
   -0.3992    3.0530   -2.2342 H   0  0  0  0  0  0  0  0  0  0  0  0
   -0.2137    3.5093   -0.5577 H   0  0  0  0  0  0  0  0  0  0  0  0
   -1.2662    4.4326   -1.6031 H   0  0  0  0  0  0  0  0  0  0  0  0
   -2.2163    4.5531    0.7020 H   0  0  0  0  0  0  0  0  0  0  0  0
   -2.7519    3.4838    1.9758 H   0  0  0  0  0  0  0  0  0  0  0  0
   -3.9244    4.3139    0.9813 H   0  0  0  0  0  0  0  0  0  0  0  0
   -6.0342    0.4426    2.4826 H   0  0  0  0  0  0  0  0  0  0  0  0
   -4.2191   -1.1724    0.9856 H   0  0  0  0  0  0  0  0  0  0  0  0
   -6.0051   -1.3528    0.7615 H   0  0  0  0  0  0  0  0  0  0  0  0
   -4.5151   -1.8472    3.2521 H   0  0  0  0  0  0  0  0  0  0  0  0
   -5.1648   -3.0524    2.0847 H   0  0  0  0  0  0  0  0  0  0  0  0
   -6.8057   -1.1848    3.6794 H   0  0  0  0  0  0  0  0  0  0  0  0
   -6.4754   -2.8952    4.0557 H   0  0  0  0  0  0  0  0  0  0  0  0
   -8.0037   -1.9133    1.8050 H   0  0  0  0  0  0  0  0  0  0  0  0
   -8.7563   -6.3528    2.0852 H   0  0  0  0  0  0  0  0  0  0  0  0
   -8.4119   -8.1649    3.6616 H   0  0  0  0  0  0  0  0  0  0  0  0
  -13.2447   -7.4356   11.8236 H   0  0  0  0  0  0  0  0  0  0  0  0
  -12.4554   -6.6286   13.9749 H   0  0  0  0  0  0  0  0  0  0  0  0
  -10.1460   -7.0097   14.6245 H   0  0  0  0  0  0  0  0  0  0  0  0
   -9.5210  -10.9473   12.9240 H   0  0  0  0  0  0  0  0  0  0  0  0
   -8.0161  -13.0770   12.8964 H   0  0  0  0  0  0  0  0  0  0  0  0
   -7.2637  -10.9094    9.4506 H   0  0  0  0  0  0  0  0  0  0  0  0
   -4.0135  -16.2932   13.1926 H   0  0  0  0  0  0  0  0  0  0  0  0
   -5.8820  -17.8308   13.4083 H   0  0  0  0  0  0  0  0  0  0  0  0
   -7.9873  -17.3239   12.3078 H   0  0  0  0  0  0  0  0  0  0  0  0
   -3.3290  -15.2921    3.1394 H   0  0  0  0  0  0  0  0  0  0  0  0
   -1.1649  -14.2828    2.6888 H   0  0  0  0  0  0  0  0  0  0  0  0
   -0.5427  -12.2236    3.8182 H   0  0  0  0  0  0  0  0  0  0  0  0
   -4.2728  -10.3462    3.8364 H   0  0  0  0  0  0  0  0  0  0  0  0
   -5.7023   -8.2478    3.8865 H   0  0  0  0  0  0  0  0  0  0  0  0
   -6.3745  -10.3240    7.4227 H   0  0  0  0  0  0  0  0  0  0  0  0
   -3.5105  -14.4462    7.1694 H   0  0  0  0  0  0  0  0  0  0  0  0
   -4.6291  -15.2009    9.3437 H   0  0  0  0  0  0  0  0  0  0  0  0
   -9.8939   -6.6677    9.7070 H   0  0  0  0  0  0  0  0  0  0  0  0
   -9.3218   -6.2171    7.2533 H   0  0  0  0  0  0  0  0  0  0  0  0
   -7.0845   -5.3906    6.5306 H   0  0  0  0  0  0  0  0  0  0  0  0
   -7.8950   -3.5936    5.1234 H   0  0  0  0  0  0  0  0  0  0  0  0
   -2.2284   -0.1876    1.4656 H   0  0  0  0  0  0  0  0  0  0  0  0
   -0.5525    1.3095    2.3055 H   0  0  0  0  0  0  0  0  0  0  0  0
  1  2  1  0  0  0  0
  1 82  1  0  0  0  0
  1 83  1  0  0  0  0
  1 84  1  0  0  0  0
  2  3  1  0  0  0  0
  2 81  2  0  0  0  0
  3  4  2  0  0  0  0
  3 85  1  0  0  0  0
  4  5  1  0  0  0  0
  4 79  1  0  0  0  0
  5  6  1  0  0  0  0
  5 86  1  0  0  0  0
  6  7  2  0  0  0  0
  6  8  1  0  0  0  0
  8  9  1  0  0  0  0
  8 87  1  0  0  0  0
  9 10  1  0  0  0  0
  9 15  2  0  0  0  0
 10 11  1  0  0  0  0
 11 12  1  0  0  0  0
 11 13  2  0  0  0  0
 12 88  1  0  0  0  0
 12 89  1  0  0  0  0
 12 90  1  0  0  0  0
 13 14  1  0  0  0  0
 13 15  1  0  0  0  0
 14 91  1  0  0  0  0
 14 92  1  0  0  0  0
 14 93  1  0  0  0  0
 15 16  1  0  0  0  0
 16 17  2  0  0  0  0
 16 18  1  0  0  0  0
 18 19  1  0  0  0  0
 18 94  1  0  0  0  0
 19 20  1  0  0  0  0
 19 95  1  0  0  0  0
 19 96  1  0  0  0  0
 20 21  1  0  0  0  0
 20 97  1  0  0  0  0
 20 98  1  0  0  0  0
 21 22  1  0  0  0  0
 21 99  1  0  0  0  0
 21100  1  0  0  0  0
 22 23  1  0  0  0  0
 22101  1  0  0  0  0
 23 24  2  0  0  0  0
 23 25  1  0  0  0  0
 25 26  1  0  0  0  0
 25 78  2  0  0  0  0
 26 27  2  0  0  0  0
 26102  1  0  0  0  0
 27 28  1  0  0  0  0
 27103  1  0  0  0  0
 28 29  1  0  0  0  0
 28 77  2  0  0  0  0
 29 30  1  0  0  0  0
 29 71  2  0  0  0  0
 30 31  2  0  0  0  0
 30 76  1  0  0  0  0
 31 32  1  0  0  0  0
 32 33  2  0  0  0  0
 32 75  1  0  0  0  0
 33 34  1  0  0  0  0
 33 42  1  0  0  0  0
 34 35  1  0  0  0  0
 34 40  2  0  0  0  0
 35 36  1  0  0  0  0
 35 37  2  0  0  0  0
 37 38  1  0  0  0  0
 37104  1  0  0  0  0
 38 39  2  0  0  0  0
 38105  1  0  0  0  0
 39 40  1  0  0  0  0
 39106  1  0  0  0  0
 40 41  1  0  0  0  0
 42 43  2  0  0  0  0
 42 46  1  0  0  0  0
 43 44  1  0  0  0  0
 43107  1  0  0  0  0
 44 45  2  0  0  0  0
 44108  1  0  0  0  0
 45 46  1  0  0  0  0
 45 47  1  0  0  0  0
 46109  1  0  0  0  0
 47 48  1  0  0  0  0
 47 56  2  0  0  0  0
 48 49  1  0  0  0  0
 48 54  2  0  0  0  0
 49 50  1  0  0  0  0
 49 51  2  0  0  0  0
 51 52  1  0  0  0  0
 51110  1  0  0  0  0
 52 53  2  0  0  0  0
 52111  1  0  0  0  0
 53 54  1  0  0  0  0
 53112  1  0  0  0  0
 54 55  1  0  0  0  0
 56 57  1  0  0  0  0
 56 74  1  0  0  0  0
 57 58  2  0  0  0  0
 58 59  1  0  0  0  0
 58 73  1  0  0  0  0
 59 60  1  0  0  0  0
 59 68  2  0  0  0  0
 60 61  1  0  0  0  0
 60 66  2  0  0  0  0
 61 62  1  0  0  0  0
 61 63  2  0  0  0  0
 63 64  1  0  0  0  0
 63113  1  0  0  0  0
 64 65  2  0  0  0  0
 64114  1  0  0  0  0
 65 66  1  0  0  0  0
 65115  1  0  0  0  0
 66 67  1  0  0  0  0
 68 69  1  0  0  0  0
 68 72  1  0  0  0  0
 69 70  2  0  0  0  0
 69116  1  0  0  0  0
 70 71  1  0  0  0  0
 70117  1  0  0  0  0
 71 72  1  0  0  0  0
 72118  1  0  0  0  0
 73 74  2  0  0  0  0
 73119  1  0  0  0  0
 74120  1  0  0  0  0
 75 76  2  0  0  0  0
 75121  1  0  0  0  0
 76122  1  0  0  0  0
 77 78  1  0  0  0  0
 77123  1  0  0  0  0
 78124  1  0  0  0  0
 79 80  2  0  0  0  0
 79125  1  0  0  0  0
 80 81  1  0  0  0  0
 80126  1  0  0  0  0
M  END
$$$$
