1_2_5869
 OpenBabel04152301363D

142153  0  0  0  0  0  0  0  0999 V2000
    0.9816   -0.1641    0.0614 C   0  0  0  0  0  0  0  0  0  0  0  0
    0.5118   -0.2869    1.5033 C   0  0  0  0  0  0  0  0  0  0  0  0
    0.8569    0.8726    2.3057 N   0  0  0  0  0  0  0  0  0  0  0  0
    0.4736    2.1583    2.0582 C   0  0  0  0  0  0  0  0  0  0  0  0
    0.9977    2.9115    3.0847 C   0  0  0  0  0  0  0  0  0  0  0  0
    0.8937    4.6046    3.3481 S   0  0  0  0  0  0  0  0  0  0  0  0
    0.0665    4.7129    4.5341 O   0  0  0  0  0  0  0  0  0  0  0  0
    2.2701    5.0357    3.3303 O   0  0  0  0  0  0  0  0  0  0  0  0
    0.0688    5.3449    2.0353 N   0  0  0  0  0  0  0  0  0  0  0  0
    0.8207    5.3122    0.7560 C   0  0  0  0  0  0  0  0  0  0  0  0
    0.0811    6.0368   -0.3623 C   0  0  0  0  0  0  0  0  0  0  0  0
   -1.3473    5.5052   -0.5071 C   0  0  0  0  0  0  0  0  0  0  0  0
   -2.1229    6.1585   -1.6698 C   0  0  0  0  0  0  0  0  0  0  0  0
   -1.5720    5.8633   -3.0721 C   0  0  0  0  0  0  0  0  0  0  0  0
   -1.4297    4.3856   -3.3305 C   0  0  0  0  0  0  0  0  0  0  0  0
   -2.5482    3.5702   -3.5406 C   0  0  0  0  0  0  0  0  0  0  0  0
   -2.3953    2.1885   -3.6940 C   0  0  0  0  0  0  0  0  0  0  0  0
   -1.1245    1.6032   -3.6274 C   0  0  0  0  0  0  0  0  0  0  0  0
   -1.0206    0.1316   -3.8177 C   0  0  0  0  0  0  0  0  0  0  0  0
   -1.9675   -0.5843   -3.4947 O   0  0  0  0  0  0  0  0  0  0  0  0
    0.0866   -0.4610   -4.3768 N   0  0  0  0  0  0  0  0  0  0  0  0
    1.3161    0.1126   -4.9090 C   0  0  0  0  0  0  0  0  0  0  0  0
    2.4484    0.0967   -3.8693 C   0  0  0  0  0  0  0  0  0  0  0  0
    3.1886   -1.2232   -3.8600 C   0  0  0  0  0  0  0  0  0  0  0  0
    4.0118   -1.4153   -5.0635 N   0  0  0  0  0  0  0  0  0  0  0  0
    4.7783   -2.5109   -5.4298 C   0  0  0  0  0  0  0  0  0  0  0  0
    5.6584   -2.4150   -6.2751 O   0  0  0  0  0  0  0  0  0  0  0  0
    4.4955   -3.8014   -4.7848 C   0  0  0  0  0  0  0  0  0  0  0  0
    5.4771   -4.7342   -4.4350 C   0  0  0  0  0  0  0  0  0  0  0  0
    5.0844   -5.8729   -3.7310 C   0  0  0  0  0  0  0  0  0  0  0  0
    3.7648   -5.9435   -3.2715 C   0  0  0  0  0  0  0  0  0  0  0  0
    3.1987   -7.0631   -2.5391 C   0  0  0  0  0  0  0  0  0  0  0  0
    3.7525   -7.2518   -1.1751 C   0  0  0  0  0  0  0  0  0  0  0  0
    4.3458   -8.2898   -0.6885 N   0  0  0  0  0  0  0  0  0  0  0  0
    4.6231   -7.9772    0.6407 C   0  0  0  0  0  0  0  0  0  0  0  0
    4.7317   -8.9454    1.5916 C   0  0  0  0  0  0  0  0  0  0  0  0
    4.3321   -8.7712    3.0359 C   0  0  0  0  0  0  0  0  0  0  0  0
    4.6519   -9.7791    3.9626 C   0  0  0  0  0  0  0  0  0  0  0  0
    5.4952  -10.7706    3.6375 F   0  0  0  0  0  0  0  0  0  0  0  0
    4.0599   -9.8502    5.2300 C   0  0  0  0  0  0  0  0  0  0  0  0
    3.1602   -8.8762    5.6433 C   0  0  0  0  0  0  0  0  0  0  0  0
    2.8676   -7.8303    4.7851 C   0  0  0  0  0  0  0  0  0  0  0  0
    3.4215   -7.7998    3.5027 C   0  0  0  0  0  0  0  0  0  0  0  0
    2.9380   -6.8290    2.7187 F   0  0  0  0  0  0  0  0  0  0  0  0
    4.8981  -10.2443    0.9910 C   0  0  0  0  0  0  0  0  0  0  0  0
    5.8578  -10.8217    0.1835 C   0  0  0  0  0  0  0  0  0  0  0  0
    5.1245  -11.6158   -0.7469 C   0  0  0  0  0  0  0  0  0  0  0  0
    3.7718  -11.5386   -0.4101 C   0  0  0  0  0  0  0  0  0  0  0  0
    3.7808  -11.0340    0.8660 N   0  0  0  0  0  0  0  0  0  0  0  0
    2.5684  -11.7980   -1.1700 C   0  0  0  0  0  0  0  0  0  0  0  0
    2.7588  -12.4173   -2.5328 C   0  0  0  0  0  0  0  0  0  0  0  0
    2.6890  -11.6979   -3.7370 C   0  0  0  0  0  0  0  0  0  0  0  0
    2.3614  -10.4033   -3.7500 F   0  0  0  0  0  0  0  0  0  0  0  0
    3.0252  -12.2676   -4.9695 C   0  0  0  0  0  0  0  0  0  0  0  0
    3.4834  -13.5779   -5.0226 C   0  0  0  0  0  0  0  0  0  0  0  0
    3.5818  -14.3097   -3.8417 C   0  0  0  0  0  0  0  0  0  0  0  0
    3.2128  -13.7354   -2.6212 C   0  0  0  0  0  0  0  0  0  0  0  0
    3.3656  -14.4707   -1.5091 F   0  0  0  0  0  0  0  0  0  0  0  0
    1.3244  -11.3329   -0.8479 C   0  0  0  0  0  0  0  0  0  0  0  0
    0.3087  -11.2760   -1.7936 N   0  0  0  0  0  0  0  0  0  0  0  0
   -0.4690  -10.3049   -1.3961 C   0  0  0  0  0  0  0  0  0  0  0  0
   -1.0818   -9.3162   -2.3207 C   0  0  0  0  0  0  0  0  0  0  0  0
   -2.5240   -8.9758   -2.2943 C   0  0  0  0  0  0  0  0  0  0  0  0
   -3.5036   -9.9430   -2.0308 C   0  0  0  0  0  0  0  0  0  0  0  0
   -3.1796  -11.2434   -1.9911 F   0  0  0  0  0  0  0  0  0  0  0  0
   -4.8336   -9.5999   -1.7423 C   0  0  0  0  0  0  0  0  0  0  0  0
   -5.2239   -8.2641   -1.7073 C   0  0  0  0  0  0  0  0  0  0  0  0
   -4.2817   -7.2812   -1.9814 C   0  0  0  0  0  0  0  0  0  0  0  0
   -2.9582   -7.6376   -2.2644 C   0  0  0  0  0  0  0  0  0  0  0  0
   -2.0905   -6.6271   -2.4227 F   0  0  0  0  0  0  0  0  0  0  0  0
   -0.0609   -8.6003   -2.8548 C   0  0  0  0  0  0  0  0  0  0  0  0
   -0.0363   -7.7270   -4.0084 C   0  0  0  0  0  0  0  0  0  0  0  0
    1.2105   -7.2230   -4.1323 C   0  0  0  0  0  0  0  0  0  0  0  0
    2.0274   -7.6009   -2.9616 C   0  0  0  0  0  0  0  0  0  0  0  0
    1.2352   -8.5171   -2.3475 N   0  0  0  0  0  0  0  0  0  0  0  0
   -0.3087   -9.9030   -0.0070 C   0  0  0  0  0  0  0  0  0  0  0  0
    0.8569  -10.4996    0.2600 C   0  0  0  0  0  0  0  0  0  0  0  0
    4.4407   -6.5574    0.7713 C   0  0  0  0  0  0  0  0  0  0  0  0
    3.7664   -6.0827   -0.2758 C   0  0  0  0  0  0  0  0  0  0  0  0
    2.8713   -4.9100   -3.4884 C   0  0  0  0  0  0  0  0  0  0  0  0
    3.1676   -4.0281   -4.4723 C   0  0  0  0  0  0  0  0  0  0  0  0
   -0.0271    2.4187   -3.3535 C   0  0  0  0  0  0  0  0  0  0  0  0
   -0.1666    3.7980   -3.2538 C   0  0  0  0  0  0  0  0  0  0  0  0
   -2.0763    5.7418    0.8179 C   0  0  0  0  0  0  0  0  0  0  0  0
   -1.3798    5.0251    1.9668 C   0  0  0  0  0  0  0  0  0  0  0  0
    1.6640    1.9921    3.9077 C   0  0  0  0  0  0  0  0  0  0  0  0
    1.5837    0.7414    3.4319 N   0  0  0  0  0  0  0  0  0  0  0  0
    0.7014   -1.0428   -0.4811 H   0  0  0  0  0  0  0  0  0  0  0  0
    2.0460   -0.0566    0.0410 H   0  0  0  0  0  0  0  0  0  0  0  0
    0.5278    0.6934   -0.3898 H   0  0  0  0  0  0  0  0  0  0  0  0
    0.9663   -1.1521    1.9389 H   0  0  0  0  0  0  0  0  0  0  0  0
   -0.5553   -0.3647    1.4900 H   0  0  0  0  0  0  0  0  0  0  0  0
   -0.0928    2.4968    1.2647 H   0  0  0  0  0  0  0  0  0  0  0  0
    0.9676    4.2922    0.4681 H   0  0  0  0  0  0  0  0  0  0  0  0
    1.7550    5.8105    0.9101 H   0  0  0  0  0  0  0  0  0  0  0  0
    0.6054    5.8876   -1.2830 H   0  0  0  0  0  0  0  0  0  0  0  0
    0.0353    7.0786   -0.1227 H   0  0  0  0  0  0  0  0  0  0  0  0
   -1.2955    4.4621   -0.7400 H   0  0  0  0  0  0  0  0  0  0  0  0
   -2.1063    7.2184   -1.5242 H   0  0  0  0  0  0  0  0  0  0  0  0
   -3.1065    5.7381   -1.6432 H   0  0  0  0  0  0  0  0  0  0  0  0
   -0.6109    6.3237   -3.1683 H   0  0  0  0  0  0  0  0  0  0  0  0
   -2.2660    6.2554   -3.7860 H   0  0  0  0  0  0  0  0  0  0  0  0
   -3.4898    3.9906   -3.5825 H   0  0  0  0  0  0  0  0  0  0  0  0
   -3.2244    1.5961   -3.8574 H   0  0  0  0  0  0  0  0  0  0  0  0
    0.0411   -1.4432   -4.4263 H   0  0  0  0  0  0  0  0  0  0  0  0
    1.1283    1.1246   -5.2015 H   0  0  0  0  0  0  0  0  0  0  0  0
    1.6242   -0.4780   -5.7463 H   0  0  0  0  0  0  0  0  0  0  0  0
    2.0295    0.2650   -2.8992 H   0  0  0  0  0  0  0  0  0  0  0  0
    3.1460    0.8659   -4.1275 H   0  0  0  0  0  0  0  0  0  0  0  0
    2.4737   -2.0172   -3.8029 H   0  0  0  0  0  0  0  0  0  0  0  0
    3.8440   -1.2226   -3.0142 H   0  0  0  0  0  0  0  0  0  0  0  0
    4.0196   -0.6615   -5.6967 H   0  0  0  0  0  0  0  0  0  0  0  0
    6.4656   -4.5842   -4.6908 H   0  0  0  0  0  0  0  0  0  0  0  0
    5.7492   -6.6422   -3.5540 H   0  0  0  0  0  0  0  0  0  0  0  0
    4.2940  -10.6322    5.8615 H   0  0  0  0  0  0  0  0  0  0  0  0
    2.7176   -8.9313    6.5739 H   0  0  0  0  0  0  0  0  0  0  0  0
    2.2393   -7.0717    5.0930 H   0  0  0  0  0  0  0  0  0  0  0  0
    6.8815  -10.7043    0.2407 H   0  0  0  0  0  0  0  0  0  0  0  0
    5.5240  -12.1535   -1.5319 H   0  0  0  0  0  0  0  0  0  0  0  0
    3.1090  -11.2065    1.5647 H   0  0  0  0  0  0  0  0  0  0  0  0
    2.9331  -11.7160   -5.8369 H   0  0  0  0  0  0  0  0  0  0  0  0
    3.7474  -14.0034   -5.9250 H   0  0  0  0  0  0  0  0  0  0  0  0
    3.9290  -15.2812   -3.8675 H   0  0  0  0  0  0  0  0  0  0  0  0
   -5.5260  -10.3419   -1.5551 H   0  0  0  0  0  0  0  0  0  0  0  0
   -6.1978   -8.0083   -1.4813 H   0  0  0  0  0  0  0  0  0  0  0  0
   -4.5579   -6.2868   -1.9764 H   0  0  0  0  0  0  0  0  0  0  0  0
   -0.8347   -7.5241   -4.6300 H   0  0  0  0  0  0  0  0  0  0  0  0
    1.5435   -6.6569   -4.9283 H   0  0  0  0  0  0  0  0  0  0  0  0
    1.5511   -9.0783   -1.6029 H   0  0  0  0  0  0  0  0  0  0  0  0
   -0.9167   -9.3264    0.5954 H   0  0  0  0  0  0  0  0  0  0  0  0
    1.3698  -10.3853    1.1482 H   0  0  0  0  0  0  0  0  0  0  0  0
    4.7823   -5.9881    1.5614 H   0  0  0  0  0  0  0  0  0  0  0  0
    3.3610   -5.1446   -0.4195 H   0  0  0  0  0  0  0  0  0  0  0  0
    2.0132   -4.8149   -2.9230 H   0  0  0  0  0  0  0  0  0  0  0  0
    2.4165   -3.5344   -4.9794 H   0  0  0  0  0  0  0  0  0  0  0  0
    0.9032    1.9915   -3.2228 H   0  0  0  0  0  0  0  0  0  0  0  0
    0.6682    4.3904   -3.1224 H   0  0  0  0  0  0  0  0  0  0  0  0
   -3.0783    5.3759    0.7348 H   0  0  0  0  0  0  0  0  0  0  0  0
   -2.0732    6.7920    1.0228 H   0  0  0  0  0  0  0  0  0  0  0  0
   -1.8410    5.3197    2.8862 H   0  0  0  0  0  0  0  0  0  0  0  0
   -1.4751    3.9722    1.8015 H   0  0  0  0  0  0  0  0  0  0  0  0
    2.1578    2.2481    4.7770 H   0  0  0  0  0  0  0  0  0  0  0  0
  1  2  1  0  0  0  0
  1 88  1  0  0  0  0
  1 89  1  0  0  0  0
  1 90  1  0  0  0  0
  2  3  1  0  0  0  0
  2 91  1  0  0  0  0
  2 92  1  0  0  0  0
  3  4  1  0  0  0  0
  3 87  1  0  0  0  0
  4  5  2  0  0  0  0
  4 93  1  0  0  0  0
  5  6  1  0  0  0  0
  5 86  1  0  0  0  0
  6  7  2  0  0  0  0
  6  8  2  0  0  0  0
  6  9  1  0  0  0  0
  9 10  1  0  0  0  0
  9 85  1  0  0  0  0
 10 11  1  0  0  0  0
 10 94  1  0  0  0  0
 10 95  1  0  0  0  0
 11 12  1  0  0  0  0
 11 96  1  0  0  0  0
 11 97  1  0  0  0  0
 12 13  1  0  0  0  0
 12 84  1  0  0  0  0
 12 98  1  0  0  0  0
 13 14  1  0  0  0  0
 13 99  1  0  0  0  0
 13100  1  0  0  0  0
 14 15  1  0  0  0  0
 14101  1  0  0  0  0
 14102  1  0  0  0  0
 15 16  1  0  0  0  0
 15 83  2  0  0  0  0
 16 17  2  0  0  0  0
 16103  1  0  0  0  0
 17 18  1  0  0  0  0
 17104  1  0  0  0  0
 18 19  1  0  0  0  0
 18 82  2  0  0  0  0
 19 20  2  0  0  0  0
 19 21  1  0  0  0  0
 21 22  1  0  0  0  0
 21105  1  0  0  0  0
 22 23  1  0  0  0  0
 22106  1  0  0  0  0
 22107  1  0  0  0  0
 23 24  1  0  0  0  0
 23108  1  0  0  0  0
 23109  1  0  0  0  0
 24 25  1  0  0  0  0
 24110  1  0  0  0  0
 24111  1  0  0  0  0
 25 26  1  0  0  0  0
 25112  1  0  0  0  0
 26 27  2  0  0  0  0
 26 28  1  0  0  0  0
 28 29  1  0  0  0  0
 28 81  2  0  0  0  0
 29 30  2  0  0  0  0
 29113  1  0  0  0  0
 30 31  1  0  0  0  0
 30114  1  0  0  0  0
 31 32  1  0  0  0  0
 31 80  2  0  0  0  0
 32 33  1  0  0  0  0
 32 74  2  0  0  0  0
 33 34  2  0  0  0  0
 33 79  1  0  0  0  0
 34 35  1  0  0  0  0
 35 36  2  0  0  0  0
 35 78  1  0  0  0  0
 36 37  1  0  0  0  0
 36 45  1  0  0  0  0
 37 38  1  0  0  0  0
 37 43  2  0  0  0  0
 38 39  1  0  0  0  0
 38 40  2  0  0  0  0
 40 41  1  0  0  0  0
 40115  1  0  0  0  0
 41 42  2  0  0  0  0
 41116  1  0  0  0  0
 42 43  1  0  0  0  0
 42117  1  0  0  0  0
 43 44  1  0  0  0  0
 45 46  2  0  0  0  0
 45 49  1  0  0  0  0
 46 47  1  0  0  0  0
 46118  1  0  0  0  0
 47 48  2  0  0  0  0
 47119  1  0  0  0  0
 48 49  1  0  0  0  0
 48 50  1  0  0  0  0
 49120  1  0  0  0  0
 50 51  1  0  0  0  0
 50 59  2  0  0  0  0
 51 52  1  0  0  0  0
 51 57  2  0  0  0  0
 52 53  1  0  0  0  0
 52 54  2  0  0  0  0
 54 55  1  0  0  0  0
 54121  1  0  0  0  0
 55 56  2  0  0  0  0
 55122  1  0  0  0  0
 56 57  1  0  0  0  0
 56123  1  0  0  0  0
 57 58  1  0  0  0  0
 59 60  1  0  0  0  0
 59 77  1  0  0  0  0
 60 61  2  0  0  0  0
 61 62  1  0  0  0  0
 61 76  1  0  0  0  0
 62 63  1  0  0  0  0
 62 71  2  0  0  0  0
 63 64  1  0  0  0  0
 63 69  2  0  0  0  0
 64 65  1  0  0  0  0
 64 66  2  0  0  0  0
 66 67  1  0  0  0  0
 66124  1  0  0  0  0
 67 68  2  0  0  0  0
 67125  1  0  0  0  0
 68 69  1  0  0  0  0
 68126  1  0  0  0  0
 69 70  1  0  0  0  0
 71 72  1  0  0  0  0
 71 75  1  0  0  0  0
 72 73  2  0  0  0  0
 72127  1  0  0  0  0
 73 74  1  0  0  0  0
 73128  1  0  0  0  0
 74 75  1  0  0  0  0
 75129  1  0  0  0  0
 76 77  2  0  0  0  0
 76130  1  0  0  0  0
 77131  1  0  0  0  0
 78 79  2  0  0  0  0
 78132  1  0  0  0  0
 79133  1  0  0  0  0
 80 81  1  0  0  0  0
 80134  1  0  0  0  0
 81135  1  0  0  0  0
 82 83  1  0  0  0  0
 82136  1  0  0  0  0
 83137  1  0  0  0  0
 84 85  1  0  0  0  0
 84138  1  0  0  0  0
 84139  1  0  0  0  0
 85140  1  0  0  0  0
 85141  1  0  0  0  0
 86 87  2  0  0  0  0
 86142  1  0  0  0  0
M  END
$$$$
