1_2_1861
 OpenBabel04152301353D

104114  0  0  0  0  0  0  0  0999 V2000
    1.2910   -0.1507   -0.8191 O   0  0  0  0  0  0  0  0  0  0  0  0
    2.3209   -0.2684   -0.1505 C   0  0  0  0  0  0  0  0  0  0  0  0
    3.3497   -0.9459   -0.7431 N   0  0  0  0  0  0  0  0  0  0  0  0
    4.7453   -1.1764   -0.4223 C   0  0  0  0  0  0  0  0  0  0  0  0
    5.0075   -2.2646    0.6180 C   0  0  0  0  0  0  0  0  0  0  0  0
    4.4255   -3.6324    0.2703 C   0  0  0  0  0  0  0  0  0  0  0  0
    5.0072   -4.2001   -0.9321 N   0  0  0  0  0  0  0  0  0  0  0  0
    5.8932   -5.2481   -1.0785 C   0  0  0  0  0  0  0  0  0  0  0  0
    6.3675   -5.4634   -2.1819 O   0  0  0  0  0  0  0  0  0  0  0  0
    6.2091   -6.0664    0.1004 C   0  0  0  0  0  0  0  0  0  0  0  0
    5.2781   -6.7689    0.9494 C   0  0  0  0  0  0  0  0  0  0  0  0
    6.0728   -7.3394    1.9011 C   0  0  0  0  0  0  0  0  0  0  0  0
    6.0877   -8.0705    3.0387 N   0  0  0  0  0  0  0  0  0  0  0  0
    7.3098   -8.2223    3.3941 N   0  0  0  0  0  0  0  0  0  0  0  0
    8.1016   -7.5153    2.5078 N   0  0  0  0  0  0  0  0  0  0  0  0
    7.3251   -7.0321    1.5586 N   0  0  0  0  0  0  0  0  0  0  0  0
    7.4904   -6.2514    0.5100 N   0  0  0  0  0  0  0  0  0  0  0  0
    2.3298    0.2592    1.2397 C   0  0  0  0  0  0  0  0  0  0  0  0
    3.4607    0.4435    2.0360 C   0  0  0  0  0  0  0  0  0  0  0  0
    3.3315    0.8554    3.3611 C   0  0  0  0  0  0  0  0  0  0  0  0
    2.0675    1.1241    3.8917 C   0  0  0  0  0  0  0  0  0  0  0  0
    1.9846    1.7198    5.2247 C   0  0  0  0  0  0  0  0  0  0  0  0
    2.5218    3.1083    5.3113 C   0  0  0  0  0  0  0  0  0  0  0  0
    3.4500    3.5653    6.0876 N   0  0  0  0  0  0  0  0  0  0  0  0
    3.5078    4.9380    5.8432 C   0  0  0  0  0  0  0  0  0  0  0  0
    3.9586    5.8041    6.7918 C   0  0  0  0  0  0  0  0  0  0  0  0
    3.2768    7.1276    7.1095 C   0  0  0  0  0  0  0  0  0  0  0  0
    3.8106    7.9268    8.1410 C   0  0  0  0  0  0  0  0  0  0  0  0
    5.0607    7.7308    8.5876 F   0  0  0  0  0  0  0  0  0  0  0  0
    3.0444    8.8704    8.8366 C   0  0  0  0  0  0  0  0  0  0  0  0
    1.7291    9.1150    8.4696 C   0  0  0  0  0  0  0  0  0  0  0  0
    1.2079    8.4439    7.3772 C   0  0  0  0  0  0  0  0  0  0  0  0
    1.9633    7.4660    6.7229 C   0  0  0  0  0  0  0  0  0  0  0  0
    1.2970    6.8184    5.7622 F   0  0  0  0  0  0  0  0  0  0  0  0
    4.7810    5.1296    7.7658 C   0  0  0  0  0  0  0  0  0  0  0  0
    5.9378    4.3757    7.7354 C   0  0  0  0  0  0  0  0  0  0  0  0
    5.7912    3.4203    8.7858 C   0  0  0  0  0  0  0  0  0  0  0  0
    4.5742    3.6711    9.4185 C   0  0  0  0  0  0  0  0  0  0  0  0
    4.2464    4.9328    9.0126 N   0  0  0  0  0  0  0  0  0  0  0  0
    3.6996    2.8486   10.2180 C   0  0  0  0  0  0  0  0  0  0  0  0
    4.2485    1.5426   10.7093 C   0  0  0  0  0  0  0  0  0  0  0  0
    3.8781    0.2863   10.2085 C   0  0  0  0  0  0  0  0  0  0  0  0
    2.9781    0.1666    9.2229 F   0  0  0  0  0  0  0  0  0  0  0  0
    4.4644   -0.8916   10.6795 C   0  0  0  0  0  0  0  0  0  0  0  0
    5.4798   -0.8335   11.6301 C   0  0  0  0  0  0  0  0  0  0  0  0
    5.8959    0.4053   12.1094 C   0  0  0  0  0  0  0  0  0  0  0  0
    5.2757    1.5713   11.6597 C   0  0  0  0  0  0  0  0  0  0  0  0
    5.7192    2.7434   12.1422 F   0  0  0  0  0  0  0  0  0  0  0  0
    2.3599    3.0694   10.3608 C   0  0  0  0  0  0  0  0  0  0  0  0
    1.4943    2.0161   10.6032 N   0  0  0  0  0  0  0  0  0  0  0  0
    0.3839    2.3672   10.0222 C   0  0  0  0  0  0  0  0  0  0  0  0
   -0.5385    1.4335    9.3379 C   0  0  0  0  0  0  0  0  0  0  0  0
   -1.9426    1.2684    9.7858 C   0  0  0  0  0  0  0  0  0  0  0  0
   -2.3105    1.4929   11.1220 C   0  0  0  0  0  0  0  0  0  0  0  0
   -1.3759    1.6619   12.0687 F   0  0  0  0  0  0  0  0  0  0  0  0
   -3.6489    1.6188   11.5186 C   0  0  0  0  0  0  0  0  0  0  0  0
   -4.6707    1.5118   10.5812 C   0  0  0  0  0  0  0  0  0  0  0  0
   -4.3433    1.2602    9.2554 C   0  0  0  0  0  0  0  0  0  0  0  0
   -3.0028    1.1503    8.8709 C   0  0  0  0  0  0  0  0  0  0  0  0
   -2.7751    1.0146    7.5570 F   0  0  0  0  0  0  0  0  0  0  0  0
    0.0542    1.0230    8.1882 C   0  0  0  0  0  0  0  0  0  0  0  0
   -0.3033   -0.0800    7.3109 C   0  0  0  0  0  0  0  0  0  0  0  0
    0.4715   -0.0360    6.2049 C   0  0  0  0  0  0  0  0  0  0  0  0
    1.3055    1.1664    6.2500 C   0  0  0  0  0  0  0  0  0  0  0  0
    1.1131    1.6307    7.5217 N   0  0  0  0  0  0  0  0  0  0  0  0
    0.2434    3.7906    9.7563 C   0  0  0  0  0  0  0  0  0  0  0  0
    1.5012    4.1818    9.9689 C   0  0  0  0  0  0  0  0  0  0  0  0
    2.7343    5.1729    4.6549 C   0  0  0  0  0  0  0  0  0  0  0  0
    2.0196    4.0939    4.3385 C   0  0  0  0  0  0  0  0  0  0  0  0
    0.9342    1.0142    3.0906 C   0  0  0  0  0  0  0  0  0  0  0  0
    1.0687    0.5829    1.7768 C   0  0  0  0  0  0  0  0  0  0  0  0
    3.0801   -1.3790   -1.5851 H   0  0  0  0  0  0  0  0  0  0  0  0
    5.1546   -0.2599   -0.0517 H   0  0  0  0  0  0  0  0  0  0  0  0
    5.2035   -1.5170   -1.3272 H   0  0  0  0  0  0  0  0  0  0  0  0
    4.5815   -1.9474    1.5469 H   0  0  0  0  0  0  0  0  0  0  0  0
    6.0691   -2.3903    0.6631 H   0  0  0  0  0  0  0  0  0  0  0  0
    3.3707   -3.5283    0.1239 H   0  0  0  0  0  0  0  0  0  0  0  0
    4.6494   -4.2941    1.0808 H   0  0  0  0  0  0  0  0  0  0  0  0
    4.7265   -3.7716   -1.7728 H   0  0  0  0  0  0  0  0  0  0  0  0
    4.2517   -6.8266    0.8585 H   0  0  0  0  0  0  0  0  0  0  0  0
    9.0763   -7.3939    2.5743 H   0  0  0  0  0  0  0  0  0  0  0  0
    4.3989    0.2737    1.6411 H   0  0  0  0  0  0  0  0  0  0  0  0
    4.1712    0.9621    3.9515 H   0  0  0  0  0  0  0  0  0  0  0  0
    3.4608    9.3869    9.6271 H   0  0  0  0  0  0  0  0  0  0  0  0
    1.1505    9.7844    9.0008 H   0  0  0  0  0  0  0  0  0  0  0  0
    0.2569    8.6664    7.0439 H   0  0  0  0  0  0  0  0  0  0  0  0
    6.7371    4.4806    7.0911 H   0  0  0  0  0  0  0  0  0  0  0  0
    6.4644    2.6780    9.0324 H   0  0  0  0  0  0  0  0  0  0  0  0
    3.7186    5.5867    9.5255 H   0  0  0  0  0  0  0  0  0  0  0  0
    4.1443   -1.8054   10.3223 H   0  0  0  0  0  0  0  0  0  0  0  0
    5.9198   -1.7005   11.9761 H   0  0  0  0  0  0  0  0  0  0  0  0
    6.6631    0.4613   12.7974 H   0  0  0  0  0  0  0  0  0  0  0  0
   -3.8771    1.7916   12.5101 H   0  0  0  0  0  0  0  0  0  0  0  0
   -5.6568    1.6177   10.8665 H   0  0  0  0  0  0  0  0  0  0  0  0
   -5.0909    1.1540    8.5519 H   0  0  0  0  0  0  0  0  0  0  0  0
   -1.0328   -0.7844    7.5025 H   0  0  0  0  0  0  0  0  0  0  0  0
    0.4749   -0.7382    5.4487 H   0  0  0  0  0  0  0  0  0  0  0  0
    1.6729    2.3311    7.9284 H   0  0  0  0  0  0  0  0  0  0  0  0
   -0.5874    4.3384    9.4828 H   0  0  0  0  0  0  0  0  0  0  0  0
    1.8278    5.1556    9.8681 H   0  0  0  0  0  0  0  0  0  0  0  0
    2.7327    6.0557    4.1204 H   0  0  0  0  0  0  0  0  0  0  0  0
    1.3028    3.9789    3.6050 H   0  0  0  0  0  0  0  0  0  0  0  0
    0.0036    1.2507    3.4689 H   0  0  0  0  0  0  0  0  0  0  0  0
    0.2287    0.4981    1.1833 H   0  0  0  0  0  0  0  0  0  0  0  0
  1  2  2  0  0  0  0
  2  3  1  0  0  0  0
  2 18  1  0  0  0  0
  3  4  1  0  0  0  0
  3 72  1  0  0  0  0
  4  5  1  0  0  0  0
  4 73  1  0  0  0  0
  4 74  1  0  0  0  0
  5  6  1  0  0  0  0
  5 75  1  0  0  0  0
  5 76  1  0  0  0  0
  6  7  1  0  0  0  0
  6 77  1  0  0  0  0
  6 78  1  0  0  0  0
  7  8  1  0  0  0  0
  7 79  1  0  0  0  0
  8  9  2  0  0  0  0
  8 10  1  0  0  0  0
 10 11  1  0  0  0  0
 10 17  2  0  0  0  0
 11 12  2  0  0  0  0
 11 80  1  0  0  0  0
 12 13  1  0  0  0  0
 12 16  1  0  0  0  0
 13 14  2  0  0  0  0
 14 15  1  0  0  0  0
 15 16  1  0  0  0  0
 15 81  1  0  0  0  0
 16 17  1  0  0  0  0
 18 19  1  0  0  0  0
 18 71  2  0  0  0  0
 19 20  2  0  0  0  0
 19 82  1  0  0  0  0
 20 21  1  0  0  0  0
 20 83  1  0  0  0  0
 21 22  1  0  0  0  0
 21 70  2  0  0  0  0
 22 23  1  0  0  0  0
 22 64  2  0  0  0  0
 23 24  2  0  0  0  0
 23 69  1  0  0  0  0
 24 25  1  0  0  0  0
 25 26  2  0  0  0  0
 25 68  1  0  0  0  0
 26 27  1  0  0  0  0
 26 35  1  0  0  0  0
 27 28  1  0  0  0  0
 27 33  2  0  0  0  0
 28 29  1  0  0  0  0
 28 30  2  0  0  0  0
 30 31  1  0  0  0  0
 30 84  1  0  0  0  0
 31 32  2  0  0  0  0
 31 85  1  0  0  0  0
 32 33  1  0  0  0  0
 32 86  1  0  0  0  0
 33 34  1  0  0  0  0
 35 36  2  0  0  0  0
 35 39  1  0  0  0  0
 36 37  1  0  0  0  0
 36 87  1  0  0  0  0
 37 38  2  0  0  0  0
 37 88  1  0  0  0  0
 38 39  1  0  0  0  0
 38 40  1  0  0  0  0
 39 89  1  0  0  0  0
 40 41  1  0  0  0  0
 40 49  2  0  0  0  0
 41 42  1  0  0  0  0
 41 47  2  0  0  0  0
 42 43  1  0  0  0  0
 42 44  2  0  0  0  0
 44 45  1  0  0  0  0
 44 90  1  0  0  0  0
 45 46  2  0  0  0  0
 45 91  1  0  0  0  0
 46 47  1  0  0  0  0
 46 92  1  0  0  0  0
 47 48  1  0  0  0  0
 49 50  1  0  0  0  0
 49 67  1  0  0  0  0
 50 51  2  0  0  0  0
 51 52  1  0  0  0  0
 51 66  1  0  0  0  0
 52 53  1  0  0  0  0
 52 61  2  0  0  0  0
 53 54  1  0  0  0  0
 53 59  2  0  0  0  0
 54 55  1  0  0  0  0
 54 56  2  0  0  0  0
 56 57  1  0  0  0  0
 56 93  1  0  0  0  0
 57 58  2  0  0  0  0
 57 94  1  0  0  0  0
 58 59  1  0  0  0  0
 58 95  1  0  0  0  0
 59 60  1  0  0  0  0
 61 62  1  0  0  0  0
 61 65  1  0  0  0  0
 62 63  2  0  0  0  0
 62 96  1  0  0  0  0
 63 64  1  0  0  0  0
 63 97  1  0  0  0  0
 64 65  1  0  0  0  0
 65 98  1  0  0  0  0
 66 67  2  0  0  0  0
 66 99  1  0  0  0  0
 67100  1  0  0  0  0
 68 69  2  0  0  0  0
 68101  1  0  0  0  0
 69102  1  0  0  0  0
 70 71  1  0  0  0  0
 70103  1  0  0  0  0
 71104  1  0  0  0  0
M  END
$$$$
