1_2_5434
 OpenBabel04152301373D

117126  0  0  0  0  0  0  0  0999 V2000
   -3.0760   -0.0321   -0.1568 N   0  0  0  0  0  0  0  0  0  0  0  0
   -1.9185    0.0498   -0.0863 C   0  0  0  0  0  0  0  0  0  0  0  0
   -0.4932    0.1439    0.0140 C   0  0  0  0  0  0  0  0  0  0  0  0
    0.1479    1.3679   -0.1723 C   0  0  0  0  0  0  0  0  0  0  0  0
    1.5358    1.4385   -0.0736 C   0  0  0  0  0  0  0  0  0  0  0  0
    2.2799    0.2944    0.2407 C   0  0  0  0  0  0  0  0  0  0  0  0
    1.6537   -0.9301    0.4893 C   0  0  0  0  0  0  0  0  0  0  0  0
    2.3230   -2.0739    0.8805 N   0  0  0  0  0  0  0  0  0  0  0  0
    3.7536   -2.1726    1.1062 C   0  0  0  0  0  0  0  0  0  0  0  0
    4.1326   -3.4557    1.8501 C   0  0  0  0  0  0  0  0  0  0  0  0
    3.5768   -4.7797    1.3222 C   0  0  0  0  0  0  0  0  0  0  0  0
    4.3635   -5.3941    0.1857 C   0  0  0  0  0  0  0  0  0  0  0  0
    5.3243   -6.1325    0.4058 O   0  0  0  0  0  0  0  0  0  0  0  0
    4.0061   -5.1715   -1.1065 N   0  0  0  0  0  0  0  0  0  0  0  0
    3.0095   -4.2713   -1.6555 C   0  0  0  0  0  0  0  0  0  0  0  0
    3.6726   -3.0719   -2.3200 C   0  0  0  0  0  0  0  0  0  0  0  0
    4.2485   -3.3861   -3.6885 C   0  0  0  0  0  0  0  0  0  0  0  0
    3.2148   -3.5561   -4.6958 N   0  0  0  0  0  0  0  0  0  0  0  0
    2.9833   -2.8304   -5.8381 C   0  0  0  0  0  0  0  0  0  0  0  0
    1.9322   -2.9806   -6.4532 O   0  0  0  0  0  0  0  0  0  0  0  0
    3.9889   -1.8561   -6.3175 C   0  0  0  0  0  0  0  0  0  0  0  0
    3.5539   -0.6414   -6.8527 C   0  0  0  0  0  0  0  0  0  0  0  0
    4.4909    0.3047   -7.2739 C   0  0  0  0  0  0  0  0  0  0  0  0
    5.8650    0.0697   -7.1034 C   0  0  0  0  0  0  0  0  0  0  0  0
    6.8830    1.0685   -7.5193 C   0  0  0  0  0  0  0  0  0  0  0  0
    7.8989    0.7043   -8.5710 C   0  0  0  0  0  0  0  0  0  0  0  0
    8.9222    1.3941   -9.0070 N   0  0  0  0  0  0  0  0  0  0  0  0
    9.5431    0.5895   -9.9545 C   0  0  0  0  0  0  0  0  0  0  0  0
   10.5873    0.8848  -10.7635 C   0  0  0  0  0  0  0  0  0  0  0  0
   11.0252   -0.1594  -11.7496 C   0  0  0  0  0  0  0  0  0  0  0  0
   10.2308   -0.5067  -12.8509 C   0  0  0  0  0  0  0  0  0  0  0  0
    9.0144    0.0368  -13.0105 F   0  0  0  0  0  0  0  0  0  0  0  0
   10.6591   -1.4397  -13.7961 C   0  0  0  0  0  0  0  0  0  0  0  0
   11.9181   -2.0236  -13.6751 C   0  0  0  0  0  0  0  0  0  0  0  0
   12.7307   -1.6862  -12.5945 C   0  0  0  0  0  0  0  0  0  0  0  0
   12.2781   -0.7752  -11.6387 C   0  0  0  0  0  0  0  0  0  0  0  0
   13.0923   -0.4847  -10.6127 F   0  0  0  0  0  0  0  0  0  0  0  0
   11.2855    2.1417  -10.7507 C   0  0  0  0  0  0  0  0  0  0  0  0
   12.3490    2.5436  -11.5392 C   0  0  0  0  0  0  0  0  0  0  0  0
   12.7277    3.8271  -11.1389 C   0  0  0  0  0  0  0  0  0  0  0  0
   11.8560    4.2512  -10.1493 C   0  0  0  0  0  0  0  0  0  0  0  0
   10.9868    3.2012   -9.9084 N   0  0  0  0  0  0  0  0  0  0  0  0
   11.8225    5.5219   -9.4734 C   0  0  0  0  0  0  0  0  0  0  0  0
   12.8113    6.5667   -9.9060 C   0  0  0  0  0  0  0  0  0  0  0  0
   13.8676    6.9833   -9.0867 C   0  0  0  0  0  0  0  0  0  0  0  0
   13.9994    6.4942   -7.8443 F   0  0  0  0  0  0  0  0  0  0  0  0
   14.7883    7.9408   -9.5156 C   0  0  0  0  0  0  0  0  0  0  0  0
   14.6927    8.4735  -10.8001 C   0  0  0  0  0  0  0  0  0  0  0  0
   13.6634    8.0579  -11.6411 C   0  0  0  0  0  0  0  0  0  0  0  0
   12.7283    7.1276  -11.1880 C   0  0  0  0  0  0  0  0  0  0  0  0
   11.7485    6.7640  -12.0296 F   0  0  0  0  0  0  0  0  0  0  0  0
   10.9433    5.8559   -8.4978 C   0  0  0  0  0  0  0  0  0  0  0  0
    9.8977    5.1102   -7.9662 N   0  0  0  0  0  0  0  0  0  0  0  0
    9.3526    5.8640   -7.0419 C   0  0  0  0  0  0  0  0  0  0  0  0
    8.1481    5.5928   -6.1767 C   0  0  0  0  0  0  0  0  0  0  0  0
    7.6881    6.6130   -5.1955 C   0  0  0  0  0  0  0  0  0  0  0  0
    7.2347    7.8705   -5.6154 C   0  0  0  0  0  0  0  0  0  0  0  0
    7.1500    8.1552   -6.9235 F   0  0  0  0  0  0  0  0  0  0  0  0
    6.9301    8.8831   -4.7038 C   0  0  0  0  0  0  0  0  0  0  0  0
    7.0268    8.6384   -3.3361 C   0  0  0  0  0  0  0  0  0  0  0  0
    7.4258    7.3798   -2.8918 C   0  0  0  0  0  0  0  0  0  0  0  0
    7.7644    6.3890   -3.8152 C   0  0  0  0  0  0  0  0  0  0  0  0
    8.1759    5.2039   -3.3410 F   0  0  0  0  0  0  0  0  0  0  0  0
    7.5074    4.4147   -6.3027 C   0  0  0  0  0  0  0  0  0  0  0  0
    6.3372    3.9998   -5.5367 C   0  0  0  0  0  0  0  0  0  0  0  0
    6.0144    2.7412   -5.8762 C   0  0  0  0  0  0  0  0  0  0  0  0
    6.9243    2.2781   -6.9264 C   0  0  0  0  0  0  0  0  0  0  0  0
    7.7735    3.3397   -7.1178 N   0  0  0  0  0  0  0  0  0  0  0  0
   10.0289    7.1552   -6.8500 C   0  0  0  0  0  0  0  0  0  0  0  0
   10.9482    7.1244   -7.8026 C   0  0  0  0  0  0  0  0  0  0  0  0
    8.8338   -0.6692   -9.9754 C   0  0  0  0  0  0  0  0  0  0  0  0
    7.7624   -0.6218   -9.1988 C   0  0  0  0  0  0  0  0  0  0  0  0
    6.2852   -1.1561   -6.5688 C   0  0  0  0  0  0  0  0  0  0  0  0
    5.3554   -2.1402   -6.2546 C   0  0  0  0  0  0  0  0  0  0  0  0
    0.2611   -0.9942    0.3277 C   0  0  0  0  0  0  0  0  0  0  0  0
   -0.4019    2.2158   -0.3819 H   0  0  0  0  0  0  0  0  0  0  0  0
    2.0174    2.3373   -0.2327 H   0  0  0  0  0  0  0  0  0  0  0  0
    3.3089    0.3566    0.2896 H   0  0  0  0  0  0  0  0  0  0  0  0
    1.7862   -2.8878    1.0172 H   0  0  0  0  0  0  0  0  0  0  0  0
    4.0701   -1.3312    1.6865 H   0  0  0  0  0  0  0  0  0  0  0  0
    4.2371   -2.1903    0.1518 H   0  0  0  0  0  0  0  0  0  0  0  0
    3.7968   -3.3493    2.8605 H   0  0  0  0  0  0  0  0  0  0  0  0
    5.1915   -3.5383    1.7204 H   0  0  0  0  0  0  0  0  0  0  0  0
    2.5778   -4.6076    0.9797 H   0  0  0  0  0  0  0  0  0  0  0  0
    3.6330   -5.4735    2.1349 H   0  0  0  0  0  0  0  0  0  0  0  0
    4.4994   -5.7029   -1.7725 H   0  0  0  0  0  0  0  0  0  0  0  0
    2.3738   -3.9282   -0.8662 H   0  0  0  0  0  0  0  0  0  0  0  0
    2.4383   -4.7987   -2.3907 H   0  0  0  0  0  0  0  0  0  0  0  0
    4.4654   -2.7291   -1.6885 H   0  0  0  0  0  0  0  0  0  0  0  0
    2.9163   -2.3277   -2.4577 H   0  0  0  0  0  0  0  0  0  0  0  0
    4.8174   -4.2900   -3.6232 H   0  0  0  0  0  0  0  0  0  0  0  0
    4.8607   -2.5597   -3.9838 H   0  0  0  0  0  0  0  0  0  0  0  0
    2.5897   -4.2997   -4.5358 H   0  0  0  0  0  0  0  0  0  0  0  0
    2.5444   -0.4439   -6.9365 H   0  0  0  0  0  0  0  0  0  0  0  0
    4.1715    1.1822   -7.7133 H   0  0  0  0  0  0  0  0  0  0  0  0
   10.0439   -1.6968  -14.5838 H   0  0  0  0  0  0  0  0  0  0  0  0
   12.2467   -2.7012  -14.3807 H   0  0  0  0  0  0  0  0  0  0  0  0
   13.6671   -2.1099  -12.5009 H   0  0  0  0  0  0  0  0  0  0  0  0
   12.7867    1.9907  -12.2927 H   0  0  0  0  0  0  0  0  0  0  0  0
   13.5218    4.3675  -11.5162 H   0  0  0  0  0  0  0  0  0  0  0  0
   10.2647    3.2062   -9.2392 H   0  0  0  0  0  0  0  0  0  0  0  0
   15.5398    8.2543   -8.8816 H   0  0  0  0  0  0  0  0  0  0  0  0
   15.3800    9.1711  -11.1257 H   0  0  0  0  0  0  0  0  0  0  0  0
   13.5927    8.4377  -12.5981 H   0  0  0  0  0  0  0  0  0  0  0  0
    6.6337    9.8116   -5.0429 H   0  0  0  0  0  0  0  0  0  0  0  0
    6.8047    9.3834   -2.6574 H   0  0  0  0  0  0  0  0  0  0  0  0
    7.4711    7.1799   -1.8804 H   0  0  0  0  0  0  0  0  0  0  0  0
    5.8376    4.5803   -4.8450 H   0  0  0  0  0  0  0  0  0  0  0  0
    5.2473    2.1883   -5.4629 H   0  0  0  0  0  0  0  0  0  0  0  0
    8.5047    3.3320   -7.7770 H   0  0  0  0  0  0  0  0  0  0  0  0
    9.8372    7.8930   -6.1544 H   0  0  0  0  0  0  0  0  0  0  0  0
   11.5864    7.9054   -8.0210 H   0  0  0  0  0  0  0  0  0  0  0  0
    9.1236   -1.4949  -10.5225 H   0  0  0  0  0  0  0  0  0  0  0  0
    7.0234   -1.3300   -9.0673 H   0  0  0  0  0  0  0  0  0  0  0  0
    7.2898   -1.3287   -6.4077 H   0  0  0  0  0  0  0  0  0  0  0  0
    5.6744   -3.0809   -5.9748 H   0  0  0  0  0  0  0  0  0  0  0  0
   -0.2184   -1.9008    0.4426 H   0  0  0  0  0  0  0  0  0  0  0  0
  1  2  3  0  0  0  0
  2  3  1  0  0  0  0
  3  4  1  0  0  0  0
  3 75  2  0  0  0  0
  4  5  2  0  0  0  0
  4 76  1  0  0  0  0
  5  6  1  0  0  0  0
  5 77  1  0  0  0  0
  6  7  2  0  0  0  0
  6 78  1  0  0  0  0
  7  8  1  0  0  0  0
  7 75  1  0  0  0  0
  8  9  1  0  0  0  0
  8 79  1  0  0  0  0
  9 10  1  0  0  0  0
  9 80  1  0  0  0  0
  9 81  1  0  0  0  0
 10 11  1  0  0  0  0
 10 82  1  0  0  0  0
 10 83  1  0  0  0  0
 11 12  1  0  0  0  0
 11 84  1  0  0  0  0
 11 85  1  0  0  0  0
 12 13  2  0  0  0  0
 12 14  1  0  0  0  0
 14 15  1  0  0  0  0
 14 86  1  0  0  0  0
 15 16  1  0  0  0  0
 15 87  1  0  0  0  0
 15 88  1  0  0  0  0
 16 17  1  0  0  0  0
 16 89  1  0  0  0  0
 16 90  1  0  0  0  0
 17 18  1  0  0  0  0
 17 91  1  0  0  0  0
 17 92  1  0  0  0  0
 18 19  1  0  0  0  0
 18 93  1  0  0  0  0
 19 20  2  0  0  0  0
 19 21  1  0  0  0  0
 21 22  1  0  0  0  0
 21 74  2  0  0  0  0
 22 23  2  0  0  0  0
 22 94  1  0  0  0  0
 23 24  1  0  0  0  0
 23 95  1  0  0  0  0
 24 25  1  0  0  0  0
 24 73  2  0  0  0  0
 25 26  1  0  0  0  0
 25 67  2  0  0  0  0
 26 27  2  0  0  0  0
 26 72  1  0  0  0  0
 27 28  1  0  0  0  0
 28 29  2  0  0  0  0
 28 71  1  0  0  0  0
 29 30  1  0  0  0  0
 29 38  1  0  0  0  0
 30 31  1  0  0  0  0
 30 36  2  0  0  0  0
 31 32  1  0  0  0  0
 31 33  2  0  0  0  0
 33 34  1  0  0  0  0
 33 96  1  0  0  0  0
 34 35  2  0  0  0  0
 34 97  1  0  0  0  0
 35 36  1  0  0  0  0
 35 98  1  0  0  0  0
 36 37  1  0  0  0  0
 38 39  2  0  0  0  0
 38 42  1  0  0  0  0
 39 40  1  0  0  0  0
 39 99  1  0  0  0  0
 40 41  2  0  0  0  0
 40100  1  0  0  0  0
 41 42  1  0  0  0  0
 41 43  1  0  0  0  0
 42101  1  0  0  0  0
 43 44  1  0  0  0  0
 43 52  2  0  0  0  0
 44 45  1  0  0  0  0
 44 50  2  0  0  0  0
 45 46  1  0  0  0  0
 45 47  2  0  0  0  0
 47 48  1  0  0  0  0
 47102  1  0  0  0  0
 48 49  2  0  0  0  0
 48103  1  0  0  0  0
 49 50  1  0  0  0  0
 49104  1  0  0  0  0
 50 51  1  0  0  0  0
 52 53  1  0  0  0  0
 52 70  1  0  0  0  0
 53 54  2  0  0  0  0
 54 55  1  0  0  0  0
 54 69  1  0  0  0  0
 55 56  1  0  0  0  0
 55 64  2  0  0  0  0
 56 57  1  0  0  0  0
 56 62  2  0  0  0  0
 57 58  1  0  0  0  0
 57 59  2  0  0  0  0
 59 60  1  0  0  0  0
 59105  1  0  0  0  0
 60 61  2  0  0  0  0
 60106  1  0  0  0  0
 61 62  1  0  0  0  0
 61107  1  0  0  0  0
 62 63  1  0  0  0  0
 64 65  1  0  0  0  0
 64 68  1  0  0  0  0
 65 66  2  0  0  0  0
 65108  1  0  0  0  0
 66 67  1  0  0  0  0
 66109  1  0  0  0  0
 67 68  1  0  0  0  0
 68110  1  0  0  0  0
 69 70  2  0  0  0  0
 69111  1  0  0  0  0
 70112  1  0  0  0  0
 71 72  2  0  0  0  0
 71113  1  0  0  0  0
 72114  1  0  0  0  0
 73 74  1  0  0  0  0
 73115  1  0  0  0  0
 74116  1  0  0  0  0
 75117  1  0  0  0  0
M  END
$$$$
