1_3_1707
 OpenBabel04152301373D

124135  0  0  0  0  0  0  0  0999 V2000
    2.3653    0.9894    1.0396 O   0  0  0  0  0  0  0  0  0  0  0  0
    3.5340    0.9111    0.7131 C   0  0  0  0  0  0  0  0  0  0  0  0
    4.3298   -0.1719    0.7747 O   0  0  0  0  0  0  0  0  0  0  0  0
    3.8476   -1.4407    0.2790 C   0  0  0  0  0  0  0  0  0  0  0  0
    2.7277   -1.4391   -0.7875 C   0  0  0  0  0  0  0  0  0  0  0  0
    2.6381   -0.1654   -1.4456 O   0  0  0  0  0  0  0  0  0  0  0  0
    1.7699   -0.0516   -2.4706 C   0  0  0  0  0  0  0  0  0  0  0  0
    1.2425   -0.9495   -3.0961 O   0  0  0  0  0  0  0  0  0  0  0  0
    1.5005    1.3927   -2.6293 C   0  0  0  0  0  0  0  0  0  0  0  0
    0.4273    1.9602   -1.9355 C   0  0  0  0  0  0  0  0  0  0  0  0
    0.1430    3.3249   -2.0786 C   0  0  0  0  0  0  0  0  0  0  0  0
    0.9409    4.1428   -2.8944 C   0  0  0  0  0  0  0  0  0  0  0  0
    0.5631    5.5672   -3.1595 C   0  0  0  0  0  0  0  0  0  0  0  0
    0.1045    5.9633   -4.5461 C   0  0  0  0  0  0  0  0  0  0  0  0
   -0.2283    7.1439   -5.0094 N   0  0  0  0  0  0  0  0  0  0  0  0
   -0.5962    6.9438   -6.3356 C   0  0  0  0  0  0  0  0  0  0  0  0
   -1.1252    7.8244   -7.2188 C   0  0  0  0  0  0  0  0  0  0  0  0
   -1.4861    7.3148   -8.5824 C   0  0  0  0  0  0  0  0  0  0  0  0
   -2.6188    6.5159   -8.7837 C   0  0  0  0  0  0  0  0  0  0  0  0
   -3.3626    6.1169   -7.7410 F   0  0  0  0  0  0  0  0  0  0  0  0
   -2.9994    6.0999  -10.0599 C   0  0  0  0  0  0  0  0  0  0  0  0
   -2.2591    6.4997  -11.1709 C   0  0  0  0  0  0  0  0  0  0  0  0
   -1.1312    7.2996  -10.9944 C   0  0  0  0  0  0  0  0  0  0  0  0
   -0.7487    7.6926   -9.7108 C   0  0  0  0  0  0  0  0  0  0  0  0
    0.3408    8.4653   -9.5853 F   0  0  0  0  0  0  0  0  0  0  0  0
   -1.4029    9.2058   -6.9333 C   0  0  0  0  0  0  0  0  0  0  0  0
   -2.0140   10.1481   -7.7441 C   0  0  0  0  0  0  0  0  0  0  0  0
   -2.0253   11.3702   -7.0644 C   0  0  0  0  0  0  0  0  0  0  0  0
   -1.4485   11.1774   -5.8210 C   0  0  0  0  0  0  0  0  0  0  0  0
   -1.0884    9.8426   -5.7465 N   0  0  0  0  0  0  0  0  0  0  0  0
   -1.2034   12.1403   -4.7824 C   0  0  0  0  0  0  0  0  0  0  0  0
   -1.5640   13.5711   -5.0483 C   0  0  0  0  0  0  0  0  0  0  0  0
   -0.5993   14.5482   -5.3155 C   0  0  0  0  0  0  0  0  0  0  0  0
    0.7057   14.2385   -5.2941 F   0  0  0  0  0  0  0  0  0  0  0  0
   -0.9588   15.8714   -5.5820 C   0  0  0  0  0  0  0  0  0  0  0  0
   -2.3041   16.2373   -5.6114 C   0  0  0  0  0  0  0  0  0  0  0  0
   -3.2821   15.2776   -5.3609 C   0  0  0  0  0  0  0  0  0  0  0  0
   -2.9094   13.9641   -5.0739 C   0  0  0  0  0  0  0  0  0  0  0  0
   -3.8837   13.0728   -4.8364 F   0  0  0  0  0  0  0  0  0  0  0  0
   -0.7066   11.8324   -3.5605 C   0  0  0  0  0  0  0  0  0  0  0  0
   -0.4210   10.5796   -3.0268 N   0  0  0  0  0  0  0  0  0  0  0  0
   -0.0060   10.7988   -1.8024 C   0  0  0  0  0  0  0  0  0  0  0  0
    0.3559    9.8112   -0.7155 C   0  0  0  0  0  0  0  0  0  0  0  0
    0.6445   10.3321    0.6547 C   0  0  0  0  0  0  0  0  0  0  0  0
   -0.3399   10.9728    1.4158 C   0  0  0  0  0  0  0  0  0  0  0  0
   -1.6041   11.0300    0.9724 F   0  0  0  0  0  0  0  0  0  0  0  0
   -0.0315   11.6392    2.6077 C   0  0  0  0  0  0  0  0  0  0  0  0
    1.2783   11.6578    3.0830 C   0  0  0  0  0  0  0  0  0  0  0  0
    2.2672   10.9960    2.3675 C   0  0  0  0  0  0  0  0  0  0  0  0
    1.9432   10.3518    1.1732 C   0  0  0  0  0  0  0  0  0  0  0  0
    2.9423    9.7679    0.5122 F   0  0  0  0  0  0  0  0  0  0  0  0
    0.4708    8.5027   -1.0292 C   0  0  0  0  0  0  0  0  0  0  0  0
    0.8643    7.4371   -0.1122 C   0  0  0  0  0  0  0  0  0  0  0  0
    0.9594    6.2776   -0.7903 C   0  0  0  0  0  0  0  0  0  0  0  0
    0.5894    6.5049   -2.1876 C   0  0  0  0  0  0  0  0  0  0  0  0
    0.2968    7.8505   -2.2315 N   0  0  0  0  0  0  0  0  0  0  0  0
    0.0948   12.2278   -1.4577 C   0  0  0  0  0  0  0  0  0  0  0  0
   -0.3916   12.8098   -2.5439 C   0  0  0  0  0  0  0  0  0  0  0  0
   -0.3669    5.5471   -6.6310 C   0  0  0  0  0  0  0  0  0  0  0  0
    0.0080    4.8856   -5.5457 C   0  0  0  0  0  0  0  0  0  0  0  0
    2.0453    3.5599   -3.5483 C   0  0  0  0  0  0  0  0  0  0  0  0
    2.3163    2.1882   -3.4347 C   0  0  0  0  0  0  0  0  0  0  0  0
    4.2764    1.9891   -0.0431 C   0  0  0  0  0  0  0  0  0  0  0  0
    4.1423    3.2759    0.1856 N   0  0  0  0  0  0  0  0  0  0  0  0
    4.9441    3.8953   -0.7728 N   0  0  0  0  0  0  0  0  0  0  0  0
    4.7817    5.2581   -1.0591 C   0  0  0  0  0  0  0  0  0  0  0  0
    4.5794    6.1948   -0.0502 C   0  0  0  0  0  0  0  0  0  0  0  0
    4.5294    7.5530   -0.3804 C   0  0  0  0  0  0  0  0  0  0  0  0
    4.5648    7.9595   -1.7220 C   0  0  0  0  0  0  0  0  0  0  0  0
    4.5538    9.6838   -2.1397 S   0  0  0  0  0  0  0  0  0  0  0  0
    3.2121   10.1882   -2.0446 O   0  0  0  0  0  0  0  0  0  0  0  0
    5.6694   10.3022   -1.4435 O   0  0  0  0  0  0  0  0  0  0  0  0
    4.8873    9.7357   -3.7189 O   0  5  0  0  0  0  0  0  0  0  0  0
    4.7032    7.0204   -2.7370 C   0  0  0  0  0  0  0  0  0  0  0  0
    4.8420    5.6814   -2.3979 C   0  0  0  0  0  0  0  0  0  0  0  0
    5.7016    3.0328   -1.5611 C   0  0  0  0  0  0  0  0  0  0  0  0
    6.5465    3.2542   -2.4125 O   0  0  0  0  0  0  0  0  0  0  0  0
    5.1999    1.7145   -1.1690 C   0  0  0  0  0  0  0  0  0  0  0  0
    5.5246    0.6414   -1.8981 C   0  0  0  0  0  0  0  0  0  0  0  0
    6.4252    0.5719   -2.9331 N   0  0  0  0  0  0  0  0  0  0  0  0
    6.6752   -0.5339   -3.7513 C   0  0  0  0  0  0  0  0  0  0  0  0
    7.9941   -0.9693   -3.9173 C   0  0  0  0  0  0  0  0  0  0  0  0
    8.2792   -2.1081   -4.6714 C   0  0  0  0  0  0  0  0  0  0  0  0
    7.2464   -2.8093   -5.2892 C   0  0  0  0  0  0  0  0  0  0  0  0
    5.9291   -2.3788   -5.1424 C   0  0  0  0  0  0  0  0  0  0  0  0
    5.6435   -1.2571   -4.3604 C   0  0  0  0  0  0  0  0  0  0  0  0
    3.4811   -1.9900    1.1209 H   0  0  0  0  0  0  0  0  0  0  0  0
    4.6909   -1.8615   -0.2276 H   0  0  0  0  0  0  0  0  0  0  0  0
    1.7931   -1.6528   -0.3124 H   0  0  0  0  0  0  0  0  0  0  0  0
    2.9575   -2.1837   -1.5208 H   0  0  0  0  0  0  0  0  0  0  0  0
   -0.1556    1.3738   -1.3179 H   0  0  0  0  0  0  0  0  0  0  0  0
   -0.6621    3.7334   -1.5786 H   0  0  0  0  0  0  0  0  0  0  0  0
   -3.8281    5.4969  -10.1810 H   0  0  0  0  0  0  0  0  0  0  0  0
   -2.5441    6.2055  -12.1181 H   0  0  0  0  0  0  0  0  0  0  0  0
   -0.5791    7.6011  -11.8125 H   0  0  0  0  0  0  0  0  0  0  0  0
   -2.3954    9.9776   -8.6877 H   0  0  0  0  0  0  0  0  0  0  0  0
   -2.3989   12.2613   -7.4270 H   0  0  0  0  0  0  0  0  0  0  0  0
   -0.6711    9.4115   -4.9659 H   0  0  0  0  0  0  0  0  0  0  0  0
   -0.2282   16.5788   -5.7573 H   0  0  0  0  0  0  0  0  0  0  0  0
   -2.5732   17.2121   -5.8173 H   0  0  0  0  0  0  0  0  0  0  0  0
   -4.2804   15.5376   -5.3875 H   0  0  0  0  0  0  0  0  0  0  0  0
   -0.7770   12.1185    3.1364 H   0  0  0  0  0  0  0  0  0  0  0  0
    1.5104   12.1572    3.9558 H   0  0  0  0  0  0  0  0  0  0  0  0
    3.2378   10.9807    2.7177 H   0  0  0  0  0  0  0  0  0  0  0  0
    1.0418    7.5541    0.8977 H   0  0  0  0  0  0  0  0  0  0  0  0
    1.2476    5.3720   -0.3881 H   0  0  0  0  0  0  0  0  0  0  0  0
   -0.0094    8.3060   -3.0488 H   0  0  0  0  0  0  0  0  0  0  0  0
    0.4522   12.6631   -0.5930 H   0  0  0  0  0  0  0  0  0  0  0  0
   -0.5276   13.8273   -2.6500 H   0  0  0  0  0  0  0  0  0  0  0  0
   -0.4803    5.1214   -7.5642 H   0  0  0  0  0  0  0  0  0  0  0  0
    0.1864    3.8757   -5.4305 H   0  0  0  0  0  0  0  0  0  0  0  0
    2.6658    4.1531   -4.1211 H   0  0  0  0  0  0  0  0  0  0  0  0
    3.1121    1.7711   -3.9424 H   0  0  0  0  0  0  0  0  0  0  0  0
    4.4676    5.8911    0.9297 H   0  0  0  0  0  0  0  0  0  0  0  0
    4.4660    8.2606    0.3682 H   0  0  0  0  0  0  0  0  0  0  0  0
    4.7028    7.3136   -3.7265 H   0  0  0  0  0  0  0  0  0  0  0  0
    4.9923    4.9835   -3.1431 H   0  0  0  0  0  0  0  0  0  0  0  0
    5.0419   -0.2377   -1.6546 H   0  0  0  0  0  0  0  0  0  0  0  0
    6.9488    1.3849   -3.1178 H   0  0  0  0  0  0  0  0  0  0  0  0
    8.7647   -0.4425   -3.4772 H   0  0  0  0  0  0  0  0  0  0  0  0
    9.2544   -2.4306   -4.7713 H   0  0  0  0  0  0  0  0  0  0  0  0
    7.4564   -3.6465   -5.8549 H   0  0  0  0  0  0  0  0  0  0  0  0
    5.1644   -2.8888   -5.6116 H   0  0  0  0  0  0  0  0  0  0  0  0
    4.6639   -0.9594   -4.2308 H   0  0  0  0  0  0  0  0  0  0  0  0
  1  2  2  0  0  0  0
  2  3  1  0  0  0  0
  2 63  1  0  0  0  0
  3  4  1  0  0  0  0
  4  5  1  0  0  0  0
  4 87  1  0  0  0  0
  4 88  1  0  0  0  0
  5  6  1  0  0  0  0
  5 89  1  0  0  0  0
  5 90  1  0  0  0  0
  6  7  1  0  0  0  0
  7  8  2  0  0  0  0
  7  9  1  0  0  0  0
  9 10  1  0  0  0  0
  9 62  2  0  0  0  0
 10 11  2  0  0  0  0
 10 91  1  0  0  0  0
 11 12  1  0  0  0  0
 11 92  1  0  0  0  0
 12 13  1  0  0  0  0
 12 61  2  0  0  0  0
 13 14  1  0  0  0  0
 13 55  2  0  0  0  0
 14 15  2  0  0  0  0
 14 60  1  0  0  0  0
 15 16  1  0  0  0  0
 16 17  2  0  0  0  0
 16 59  1  0  0  0  0
 17 18  1  0  0  0  0
 17 26  1  0  0  0  0
 18 19  1  0  0  0  0
 18 24  2  0  0  0  0
 19 20  1  0  0  0  0
 19 21  2  0  0  0  0
 21 22  1  0  0  0  0
 21 93  1  0  0  0  0
 22 23  2  0  0  0  0
 22 94  1  0  0  0  0
 23 24  1  0  0  0  0
 23 95  1  0  0  0  0
 24 25  1  0  0  0  0
 26 27  2  0  0  0  0
 26 30  1  0  0  0  0
 27 28  1  0  0  0  0
 27 96  1  0  0  0  0
 28 29  2  0  0  0  0
 28 97  1  0  0  0  0
 29 30  1  0  0  0  0
 29 31  1  0  0  0  0
 30 98  1  0  0  0  0
 31 32  1  0  0  0  0
 31 40  2  0  0  0  0
 32 33  1  0  0  0  0
 32 38  2  0  0  0  0
 33 34  1  0  0  0  0
 33 35  2  0  0  0  0
 35 36  1  0  0  0  0
 35 99  1  0  0  0  0
 36 37  2  0  0  0  0
 36100  1  0  0  0  0
 37 38  1  0  0  0  0
 37101  1  0  0  0  0
 38 39  1  0  0  0  0
 40 41  1  0  0  0  0
 40 58  1  0  0  0  0
 41 42  2  0  0  0  0
 42 43  1  0  0  0  0
 42 57  1  0  0  0  0
 43 44  1  0  0  0  0
 43 52  2  0  0  0  0
 44 45  1  0  0  0  0
 44 50  2  0  0  0  0
 45 46  1  0  0  0  0
 45 47  2  0  0  0  0
 47 48  1  0  0  0  0
 47102  1  0  0  0  0
 48 49  2  0  0  0  0
 48103  1  0  0  0  0
 49 50  1  0  0  0  0
 49104  1  0  0  0  0
 50 51  1  0  0  0  0
 52 53  1  0  0  0  0
 52 56  1  0  0  0  0
 53 54  2  0  0  0  0
 53105  1  0  0  0  0
 54 55  1  0  0  0  0
 54106  1  0  0  0  0
 55 56  1  0  0  0  0
 56107  1  0  0  0  0
 57 58  2  0  0  0  0
 57108  1  0  0  0  0
 58109  1  0  0  0  0
 59 60  2  0  0  0  0
 59110  1  0  0  0  0
 60111  1  0  0  0  0
 61 62  1  0  0  0  0
 61112  1  0  0  0  0
 62113  1  0  0  0  0
 63 64  2  0  0  0  0
 63 78  1  0  0  0  0
 64 65  1  0  0  0  0
 65 66  1  0  0  0  0
 65 76  1  0  0  0  0
 66 67  1  0  0  0  0
 66 75  2  0  0  0  0
 67 68  2  0  0  0  0
 67114  1  0  0  0  0
 68 69  1  0  0  0  0
 68115  1  0  0  0  0
 69 70  1  0  0  0  0
 69 74  2  0  0  0  0
 70 71  2  0  0  0  0
 70 72  2  0  0  0  0
 70 73  1  0  0  0  0
 74 75  1  0  0  0  0
 74116  1  0  0  0  0
 75117  1  0  0  0  0
 76 77  2  0  0  0  0
 76 78  1  0  0  0  0
 78 79  2  0  0  0  0
 79 80  1  0  0  0  0
 79118  1  0  0  0  0
 80 81  1  0  0  0  0
 80119  1  0  0  0  0
 81 82  1  0  0  0  0
 81 86  2  0  0  0  0
 82 83  2  0  0  0  0
 82120  1  0  0  0  0
 83 84  1  0  0  0  0
 83121  1  0  0  0  0
 84 85  2  0  0  0  0
 84122  1  0  0  0  0
 85 86  1  0  0  0  0
 85123  1  0  0  0  0
 86124  1  0  0  0  0
M  CHG  1  73  -1
M  END
$$$$
