1_3_7592
 OpenBabel04152301373D

129139  0  0  1  0  0  0  0  0999 V2000
    1.5276    0.3123   -0.2046 C   0  0  0  0  0  0  0  0  0  0  0  0
    1.0300    0.7131   -1.5849 C   0  0  0  0  0  0  0  0  0  0  0  0
    1.4283   -0.2915   -2.5965 C   0  0  0  0  0  0  0  0  0  0  0  0
    0.8633   -1.4301   -2.9296 N   0  0  0  0  0  0  0  0  0  0  0  0
    1.7863   -1.9783   -3.7842 C   0  0  0  0  0  0  0  0  0  0  0  0
    1.6015   -3.2397   -4.2388 N   0  0  0  0  0  0  0  0  0  0  0  0
    2.7241   -3.9486   -4.8534 C   0  0  0  0  0  0  0  0  0  0  0  0
    2.5441   -5.4794   -4.7326 C   0  0  0  0  0  0  0  0  0  0  0  0
    1.2484   -6.0286   -5.1765 N   0  3  2  0  0  0  0  0  0  0  0  0
    1.1807   -6.3512   -6.5948 C   0  0  0  0  0  0  0  0  0  0  0  0
    1.1593   -5.1836   -7.5309 C   0  0  0  0  0  0  0  0  0  0  0  0
    2.1562   -4.7750   -8.3399 C   0  0  0  0  0  0  0  0  0  0  0  0
    2.0035   -3.5311   -9.1696 C   0  0  0  0  0  0  0  0  0  0  0  0
    3.4871   -5.4666   -8.4429 C   0  0  0  0  0  0  0  0  0  0  0  0
    0.1384   -5.2363   -4.5880 C   0  0  2  0  0  0  0  0  0  0  0  0
   -1.2599   -5.6472   -5.0450 C   0  0  0  0  0  0  0  0  0  0  0  0
   -2.0703   -4.8864   -5.5615 O   0  0  0  0  0  0  0  0  0  0  0  0
   -1.5167   -6.9458   -4.7209 O   0  0  0  0  0  0  0  0  0  0  0  0
   -2.8896   -7.3655   -4.7715 C   0  0  0  0  0  0  0  0  0  0  0  0
   -3.3405   -7.8128   -3.3785 C   0  0  0  0  0  0  0  0  0  0  0  0
   -3.2410   -6.7398   -2.4180 O   0  0  0  0  0  0  0  0  0  0  0  0
   -2.0776   -6.7017   -1.7217 C   0  0  0  0  0  0  0  0  0  0  0  0
   -1.1340   -7.4667   -1.8169 O   0  0  0  0  0  0  0  0  0  0  0  0
   -2.0389   -5.5042   -0.8639 C   0  0  0  0  0  0  0  0  0  0  0  0
   -0.9448   -4.6446   -0.9873 C   0  0  0  0  0  0  0  0  0  0  0  0
   -0.8221   -3.5388   -0.1589 C   0  0  0  0  0  0  0  0  0  0  0  0
   -1.7701   -3.3104    0.8426 C   0  0  0  0  0  0  0  0  0  0  0  0
   -1.5265   -2.2020    1.7887 C   0  0  0  0  0  0  0  0  0  0  0  0
   -0.8367   -2.4831    3.0900 C   0  0  0  0  0  0  0  0  0  0  0  0
   -0.4970   -1.6528    4.0414 N   0  0  0  0  0  0  0  0  0  0  0  0
    0.1002   -2.4314    5.0238 C   0  0  0  0  0  0  0  0  0  0  0  0
    0.6018   -2.0379    6.2180 C   0  0  0  0  0  0  0  0  0  0  0  0
    1.1228   -3.1079    7.1280 C   0  0  0  0  0  0  0  0  0  0  0  0
    2.3629   -3.7222    6.9181 C   0  0  0  0  0  0  0  0  0  0  0  0
    3.1196   -3.3834    5.8635 F   0  0  0  0  0  0  0  0  0  0  0  0
    2.8319   -4.7242    7.7705 C   0  0  0  0  0  0  0  0  0  0  0  0
    2.0704   -5.1167    8.8705 C   0  0  0  0  0  0  0  0  0  0  0  0
    0.8386   -4.5094    9.1050 C   0  0  0  0  0  0  0  0  0  0  0  0
    0.3724   -3.5226    8.2356 C   0  0  0  0  0  0  0  0  0  0  0  0
   -0.8250   -2.9739    8.4903 F   0  0  0  0  0  0  0  0  0  0  0  0
    0.6110   -0.6752    6.6789 C   0  0  0  0  0  0  0  0  0  0  0  0
    1.0217   -0.1770    7.9027 C   0  0  0  0  0  0  0  0  0  0  0  0
    0.8294    1.2095    7.8957 C   0  0  0  0  0  0  0  0  0  0  0  0
    0.3326    1.5770    6.6551 C   0  0  0  0  0  0  0  0  0  0  0  0
    0.1961    0.4106    5.9224 N   0  0  0  0  0  0  0  0  0  0  0  0
    0.0078    2.8946    6.1739 C   0  0  0  0  0  0  0  0  0  0  0  0
    0.2322    4.0503    7.1007 C   0  0  0  0  0  0  0  0  0  0  0  0
   -0.8361    4.6888    7.7428 C   0  0  0  0  0  0  0  0  0  0  0  0
   -2.0998    4.3082    7.5013 F   0  0  0  0  0  0  0  0  0  0  0  0
   -0.6257    5.7505    8.6230 C   0  0  0  0  0  0  0  0  0  0  0  0
    0.6719    6.1793    8.8971 C   0  0  0  0  0  0  0  0  0  0  0  0
    1.7505    5.5493    8.2784 C   0  0  0  0  0  0  0  0  0  0  0  0
    1.5262    4.5017    7.3845 C   0  0  0  0  0  0  0  0  0  0  0  0
    2.5909    3.9262    6.8060 F   0  0  0  0  0  0  0  0  0  0  0  0
   -0.4904    3.1788    4.9459 C   0  0  0  0  0  0  0  0  0  0  0  0
   -0.8130    2.3126    3.9101 N   0  0  0  0  0  0  0  0  0  0  0  0
   -1.3102    3.0628    2.9567 C   0  0  0  0  0  0  0  0  0  0  0  0
   -1.8364    2.6573    1.6075 C   0  0  0  0  0  0  0  0  0  0  0  0
   -2.2369    3.6825    0.6124 C   0  0  0  0  0  0  0  0  0  0  0  0
   -1.2841    4.5236    0.0259 C   0  0  0  0  0  0  0  0  0  0  0  0
    0.0111    4.4085    0.3551 F   0  0  0  0  0  0  0  0  0  0  0  0
   -1.6474    5.5180   -0.8838 C   0  0  0  0  0  0  0  0  0  0  0  0
   -2.9838    5.6714   -1.2480 C   0  0  0  0  0  0  0  0  0  0  0  0
   -3.9481    4.8343   -0.6903 C   0  0  0  0  0  0  0  0  0  0  0  0
   -3.5735    3.8622    0.2381 C   0  0  0  0  0  0  0  0  0  0  0  0
   -4.5340    3.0876    0.7634 F   0  0  0  0  0  0  0  0  0  0  0  0
   -1.9358    1.3475    1.3147 C   0  0  0  0  0  0  0  0  0  0  0  0
   -2.4443    0.7867    0.0663 C   0  0  0  0  0  0  0  0  0  0  0  0
   -2.3866   -0.5538    0.1313 C   0  0  0  0  0  0  0  0  0  0  0  0
   -1.8062   -0.9409    1.4167 C   0  0  0  0  0  0  0  0  0  0  0  0
   -1.5946    0.2485    2.0637 N   0  0  0  0  0  0  0  0  0  0  0  0
   -1.3550    4.4960    3.2793 C   0  0  0  0  0  0  0  0  0  0  0  0
   -0.8118    4.5157    4.4884 C   0  0  0  0  0  0  0  0  0  0  0  0
    0.0858   -3.7991    4.5507 C   0  0  0  0  0  0  0  0  0  0  0  0
   -0.4697   -3.8844    3.3502 C   0  0  0  0  0  0  0  0  0  0  0  0
   -2.8682   -4.1760    0.9750 C   0  0  0  0  0  0  0  0  0  0  0  0
   -3.0084   -5.2722    0.1149 C   0  0  0  0  0  0  0  0  0  0  0  0
    0.2634   -3.6909   -4.6363 C   0  0  0  0  0  0  0  0  0  0  0  0
    2.8471   -1.1909   -4.0152 N   0  0  0  0  0  0  0  0  0  0  0  0
    2.6055   -0.0646   -3.2405 O   0  0  0  0  0  0  0  0  0  0  0  0
    1.2295    1.0505    0.5103 H   0  0  0  0  0  0  0  0  0  0  0  0
    2.5950    0.2390   -0.2177 H   0  0  0  0  0  0  0  0  0  0  0  0
    1.1084   -0.6346    0.0646 H   0  0  0  0  0  0  0  0  0  0  0  0
    1.4495    1.6617   -1.8478 H   0  0  0  0  0  0  0  0  0  0  0  0
   -0.0381    0.7732   -1.5616 H   0  0  0  0  0  0  0  0  0  0  0  0
    3.6303   -3.6627   -4.3614 H   0  0  0  0  0  0  0  0  0  0  0  0
    2.7640   -3.6904   -5.8910 H   0  0  0  0  0  0  0  0  0  0  0  0
    2.6723   -5.7412   -3.7031 H   0  0  0  0  0  0  0  0  0  0  0  0
    3.2715   -5.9024   -5.3936 H   0  0  0  0  0  0  0  0  0  0  0  0
    1.1327   -6.9679   -4.7961 H   0  0  0  0  0  0  0  0  0  0  0  0
    0.2893   -6.9197   -6.7594 H   0  0  0  0  0  0  0  0  0  0  0  0
    2.0837   -6.8816   -6.8143 H   0  0  0  0  0  0  0  0  0  0  0  0
    0.2874   -4.6323   -7.5598 H   0  0  0  0  0  0  0  0  0  0  0  0
    1.0258   -3.1220   -9.0224 H   0  0  0  0  0  0  0  0  0  0  0  0
    2.1369   -3.7732  -10.2033 H   0  0  0  0  0  0  0  0  0  0  0  0
    2.7391   -2.8125   -8.8738 H   0  0  0  0  0  0  0  0  0  0  0  0
    3.4877   -6.3340   -7.8164 H   0  0  0  0  0  0  0  0  0  0  0  0
    4.2615   -4.7987   -8.1281 H   0  0  0  0  0  0  0  0  0  0  0  0
    3.6593   -5.7594   -9.4576 H   0  0  0  0  0  0  0  0  0  0  0  0
    0.2622   -5.5102   -3.5611 H   0  0  0  0  0  0  0  0  0  0  0  0
   -2.9877   -8.1814   -5.4568 H   0  0  0  0  0  0  0  0  0  0  0  0
   -3.4994   -6.5490   -5.0977 H   0  0  0  0  0  0  0  0  0  0  0  0
   -2.7221   -8.6248   -3.0574 H   0  0  0  0  0  0  0  0  0  0  0  0
   -4.3655   -8.1140   -3.4390 H   0  0  0  0  0  0  0  0  0  0  0  0
   -0.2226   -4.8336   -1.6999 H   0  0  0  0  0  0  0  0  0  0  0  0
   -0.0324   -2.8859   -0.2818 H   0  0  0  0  0  0  0  0  0  0  0  0
    3.7422   -5.1741    7.5861 H   0  0  0  0  0  0  0  0  0  0  0  0
    2.4167   -5.8519    9.5065 H   0  0  0  0  0  0  0  0  0  0  0  0
    0.2717   -4.7891    9.9207 H   0  0  0  0  0  0  0  0  0  0  0  0
    1.4035   -0.7314    8.6849 H   0  0  0  0  0  0  0  0  0  0  0  0
    1.0245    1.8497    8.6813 H   0  0  0  0  0  0  0  0  0  0  0  0
   -0.1451    0.3593    5.0004 H   0  0  0  0  0  0  0  0  0  0  0  0
   -1.4297    6.2178    9.0706 H   0  0  0  0  0  0  0  0  0  0  0  0
    0.8332    6.9586    9.5542 H   0  0  0  0  0  0  0  0  0  0  0  0
    2.7143    5.8575    8.4814 H   0  0  0  0  0  0  0  0  0  0  0  0
   -0.9276    6.1386   -1.2860 H   0  0  0  0  0  0  0  0  0  0  0  0
   -3.2573    6.3998   -1.9259 H   0  0  0  0  0  0  0  0  0  0  0  0
   -4.9383    4.9332   -0.9636 H   0  0  0  0  0  0  0  0  0  0  0  0
   -2.7923    1.3327   -0.7373 H   0  0  0  0  0  0  0  0  0  0  0  0
   -2.7006   -1.2044   -0.6056 H   0  0  0  0  0  0  0  0  0  0  0  0
   -1.2329    0.3091    2.9773 H   0  0  0  0  0  0  0  0  0  0  0  0
   -1.7147    5.2805    2.7135 H   0  0  0  0  0  0  0  0  0  0  0  0
   -0.6397    5.3742    5.0346 H   0  0  0  0  0  0  0  0  0  0  0  0
    0.4593   -4.6031    5.0791 H   0  0  0  0  0  0  0  0  0  0  0  0
   -0.6085   -4.7155    2.7543 H   0  0  0  0  0  0  0  0  0  0  0  0
   -3.5737   -4.0037    1.7082 H   0  0  0  0  0  0  0  0  0  0  0  0
   -3.8205   -5.9029    0.2033 H   0  0  0  0  0  0  0  0  0  0  0  0
    0.0682   -3.3587   -5.6345 H   0  0  0  0  0  0  0  0  0  0  0  0
   -0.4446   -3.2784   -3.9483 H   0  0  0  0  0  0  0  0  0  0  0  0
  1  2  1  0  0  0  0
  1 81  1  0  0  0  0
  1 82  1  0  0  0  0
  1 83  1  0  0  0  0
  2  3  1  0  0  0  0
  2 84  1  0  0  0  0
  2 85  1  0  0  0  0
  3  4  2  0  0  0  0
  3 80  1  0  0  0  0
  4  5  1  0  0  0  0
  5  6  1  0  0  0  0
  5 79  2  0  0  0  0
  6  7  1  0  0  0  0
  6 78  1  0  0  0  0
  7  8  1  0  0  0  0
  7 86  1  0  0  0  0
  7 87  1  0  0  0  0
  8  9  1  0  0  0  0
  8 88  1  0  0  0  0
  8 89  1  0  0  0  0
  9 10  1  0  0  0  0
  9 15  1  0  0  0  0
  9 90  1  1  0  0  0
 10 11  1  0  0  0  0
 10 91  1  0  0  0  0
 10 92  1  0  0  0  0
 11 12  2  0  0  0  0
 11 93  1  0  0  0  0
 12 13  1  0  0  0  0
 12 14  1  0  0  0  0
 13 94  1  0  0  0  0
 13 95  1  0  0  0  0
 13 96  1  0  0  0  0
 14 97  1  0  0  0  0
 14 98  1  0  0  0  0
 14 99  1  0  0  0  0
 15 78  1  0  0  0  0
 15 16  1  0  0  0  0
 15100  1  1  0  0  0
 16 17  2  0  0  0  0
 16 18  1  0  0  0  0
 18 19  1  0  0  0  0
 19 20  1  0  0  0  0
 19101  1  0  0  0  0
 19102  1  0  0  0  0
 20 21  1  0  0  0  0
 20103  1  0  0  0  0
 20104  1  0  0  0  0
 21 22  1  0  0  0  0
 22 23  2  0  0  0  0
 22 24  1  0  0  0  0
 24 25  1  0  0  0  0
 24 77  2  0  0  0  0
 25 26  2  0  0  0  0
 25105  1  0  0  0  0
 26 27  1  0  0  0  0
 26106  1  0  0  0  0
 27 28  1  0  0  0  0
 27 76  2  0  0  0  0
 28 29  1  0  0  0  0
 28 70  2  0  0  0  0
 29 30  2  0  0  0  0
 29 75  1  0  0  0  0
 30 31  1  0  0  0  0
 31 32  2  0  0  0  0
 31 74  1  0  0  0  0
 32 33  1  0  0  0  0
 32 41  1  0  0  0  0
 33 34  1  0  0  0  0
 33 39  2  0  0  0  0
 34 35  1  0  0  0  0
 34 36  2  0  0  0  0
 36 37  1  0  0  0  0
 36107  1  0  0  0  0
 37 38  2  0  0  0  0
 37108  1  0  0  0  0
 38 39  1  0  0  0  0
 38109  1  0  0  0  0
 39 40  1  0  0  0  0
 41 42  2  0  0  0  0
 41 45  1  0  0  0  0
 42 43  1  0  0  0  0
 42110  1  0  0  0  0
 43 44  2  0  0  0  0
 43111  1  0  0  0  0
 44 45  1  0  0  0  0
 44 46  1  0  0  0  0
 45112  1  0  0  0  0
 46 47  1  0  0  0  0
 46 55  2  0  0  0  0
 47 48  1  0  0  0  0
 47 53  2  0  0  0  0
 48 49  1  0  0  0  0
 48 50  2  0  0  0  0
 50 51  1  0  0  0  0
 50113  1  0  0  0  0
 51 52  2  0  0  0  0
 51114  1  0  0  0  0
 52 53  1  0  0  0  0
 52115  1  0  0  0  0
 53 54  1  0  0  0  0
 55 56  1  0  0  0  0
 55 73  1  0  0  0  0
 56 57  2  0  0  0  0
 57 58  1  0  0  0  0
 57 72  1  0  0  0  0
 58 59  1  0  0  0  0
 58 67  2  0  0  0  0
 59 60  1  0  0  0  0
 59 65  2  0  0  0  0
 60 61  1  0  0  0  0
 60 62  2  0  0  0  0
 62 63  1  0  0  0  0
 62116  1  0  0  0  0
 63 64  2  0  0  0  0
 63117  1  0  0  0  0
 64 65  1  0  0  0  0
 64118  1  0  0  0  0
 65 66  1  0  0  0  0
 67 68  1  0  0  0  0
 67 71  1  0  0  0  0
 68 69  2  0  0  0  0
 68119  1  0  0  0  0
 69 70  1  0  0  0  0
 69120  1  0  0  0  0
 70 71  1  0  0  0  0
 71121  1  0  0  0  0
 72 73  2  0  0  0  0
 72122  1  0  0  0  0
 73123  1  0  0  0  0
 74 75  2  0  0  0  0
 74124  1  0  0  0  0
 75125  1  0  0  0  0
 76 77  1  0  0  0  0
 76126  1  0  0  0  0
 77127  1  0  0  0  0
 78128  1  0  0  0  0
 78129  1  0  0  0  0
 79 80  1  0  0  0  0
M  CHG  1   9   1
M  END
$$$$
