1_3_756
 OpenBabel04152301373D

136147  0  0  0  0  0  0  0  0999 V2000
   -1.9078    0.6886    0.1490 C   0  0  0  0  0  0  0  0  0  0  0  0
   -0.5904    0.2860    0.5462 N   0  0  0  0  0  0  0  0  0  0  0  0
    0.2130    1.3163    0.8619 N   0  0  0  0  0  0  0  0  0  0  0  0
    1.3432    0.7376    1.2199 C   0  0  0  0  0  0  0  0  0  0  0  0
    1.3035   -0.6611    1.0721 C   0  0  0  0  0  0  0  0  0  0  0  0
    2.4490   -1.4963    1.4004 C   0  0  0  0  0  0  0  0  0  0  0  0
    3.1642   -1.2130    2.3595 O   0  0  0  0  0  0  0  0  0  0  0  0
    2.7495   -2.4719    0.4953 O   0  0  0  0  0  0  0  0  0  0  0  0
    3.9226   -3.2490    0.8107 C   0  0  0  0  0  0  0  0  0  0  0  0
    5.1067   -2.9018   -0.0917 C   0  0  0  0  0  0  0  0  0  0  0  0
    5.2342   -1.4792   -0.2313 O   0  0  0  0  0  0  0  0  0  0  0  0
    5.1634   -1.0130   -1.5026 C   0  0  0  0  0  0  0  0  0  0  0  0
    5.0988   -1.6602   -2.5306 O   0  0  0  0  0  0  0  0  0  0  0  0
    5.2122    0.4589   -1.4954 C   0  0  0  0  0  0  0  0  0  0  0  0
    4.4123    1.1870   -0.6186 C   0  0  0  0  0  0  0  0  0  0  0  0
    4.3847    2.5771   -0.6905 C   0  0  0  0  0  0  0  0  0  0  0  0
    5.2510    3.2579   -1.5605 C   0  0  0  0  0  0  0  0  0  0  0  0
    5.3714    4.7386   -1.4956 C   0  0  0  0  0  0  0  0  0  0  0  0
    5.0926    5.5948   -2.6987 C   0  0  0  0  0  0  0  0  0  0  0  0
    5.3103    6.8746   -2.8687 N   0  0  0  0  0  0  0  0  0  0  0  0
    4.9351    7.1552   -4.1768 C   0  0  0  0  0  0  0  0  0  0  0  0
    4.9775    8.3435   -4.8275 C   0  0  0  0  0  0  0  0  0  0  0  0
    4.5812    8.3618   -6.2764 C   0  0  0  0  0  0  0  0  0  0  0  0
    3.2485    8.2353   -6.6872 C   0  0  0  0  0  0  0  0  0  0  0  0
    2.2747    8.0410   -5.7852 F   0  0  0  0  0  0  0  0  0  0  0  0
    2.8927    8.2765   -8.0379 C   0  0  0  0  0  0  0  0  0  0  0  0
    3.8703    8.4745   -9.0114 C   0  0  0  0  0  0  0  0  0  0  0  0
    5.2012    8.6176   -8.6261 C   0  0  0  0  0  0  0  0  0  0  0  0
    5.5468    8.5517   -7.2747 C   0  0  0  0  0  0  0  0  0  0  0  0
    6.8419    8.6882   -6.9522 F   0  0  0  0  0  0  0  0  0  0  0  0
    5.4062    9.5801   -4.2222 C   0  0  0  0  0  0  0  0  0  0  0  0
    5.4712   10.8425   -4.7870 C   0  0  0  0  0  0  0  0  0  0  0  0
    5.9720   11.7278   -3.8256 C   0  0  0  0  0  0  0  0  0  0  0  0
    6.1802   11.0260   -2.6492 C   0  0  0  0  0  0  0  0  0  0  0  0
    5.8353    9.7091   -2.9085 N   0  0  0  0  0  0  0  0  0  0  0  0
    6.6599   11.5226   -1.3847 C   0  0  0  0  0  0  0  0  0  0  0  0
    7.0112   12.9753   -1.2853 C   0  0  0  0  0  0  0  0  0  0  0  0
    8.3424   13.4059   -1.2245 C   0  0  0  0  0  0  0  0  0  0  0  0
    9.3460   12.5155   -1.2264 F   0  0  0  0  0  0  0  0  0  0  0  0
    8.6639   14.7592   -1.1179 C   0  0  0  0  0  0  0  0  0  0  0  0
    7.6497   15.7153   -1.0985 C   0  0  0  0  0  0  0  0  0  0  0  0
    6.3187   15.3091   -1.1761 C   0  0  0  0  0  0  0  0  0  0  0  0
    6.0088   13.9518   -1.2594 C   0  0  0  0  0  0  0  0  0  0  0  0
    4.7150   13.6021   -1.3179 F   0  0  0  0  0  0  0  0  0  0  0  0
    6.8039   10.7866   -0.2562 C   0  0  0  0  0  0  0  0  0  0  0  0
    6.5557    9.4374   -0.0580 N   0  0  0  0  0  0  0  0  0  0  0  0
    6.8822    9.1927    1.1878 C   0  0  0  0  0  0  0  0  0  0  0  0
    6.8336    7.8951    1.9350 C   0  0  0  0  0  0  0  0  0  0  0  0
    7.2584    7.8012    3.3543 C   0  0  0  0  0  0  0  0  0  0  0  0
    6.4922    8.3690    4.3774 C   0  0  0  0  0  0  0  0  0  0  0  0
    5.3806    9.0596    4.0846 F   0  0  0  0  0  0  0  0  0  0  0  0
    6.8654    8.2560    5.7179 C   0  0  0  0  0  0  0  0  0  0  0  0
    8.0119    7.5426    6.0639 C   0  0  0  0  0  0  0  0  0  0  0  0
    8.7889    6.9645    5.0628 C   0  0  0  0  0  0  0  0  0  0  0  0
    8.4197    7.1106    3.7254 C   0  0  0  0  0  0  0  0  0  0  0  0
    9.1943    6.5372    2.7924 F   0  0  0  0  0  0  0  0  0  0  0  0
    6.4278    6.7899    1.2844 C   0  0  0  0  0  0  0  0  0  0  0  0
    6.4024    5.4512    1.8565 C   0  0  0  0  0  0  0  0  0  0  0  0
    6.0802    4.5769    0.8945 C   0  0  0  0  0  0  0  0  0  0  0  0
    5.7786    5.3048   -0.3416 C   0  0  0  0  0  0  0  0  0  0  0  0
    6.0080    6.6165   -0.0128 N   0  0  0  0  0  0  0  0  0  0  0  0
    7.3774   10.3613    1.9251 C   0  0  0  0  0  0  0  0  0  0  0  0
    7.2817   11.3131    1.0075 C   0  0  0  0  0  0  0  0  0  0  0  0
    4.4772    5.9109   -4.7587 C   0  0  0  0  0  0  0  0  0  0  0  0
    4.5099    4.9249   -3.8714 C   0  0  0  0  0  0  0  0  0  0  0  0
    6.0658    2.5136   -2.4291 C   0  0  0  0  0  0  0  0  0  0  0  0
    6.0173    1.1179   -2.4244 C   0  0  0  0  0  0  0  0  0  0  0  0
   -0.0184   -0.9650    0.6806 C   0  0  0  0  0  0  0  0  0  0  0  0
   -0.5393   -2.3156    0.5140 C   0  0  0  0  0  0  0  0  0  0  0  0
    0.1994   -3.2928    0.6894 O   0  0  0  0  0  0  0  0  0  0  0  0
   -1.8103   -2.7148    0.1898 N   0  0  0  0  0  0  0  0  0  0  0  0
   -3.1775   -2.2290    0.2787 C   0  0  0  0  0  0  0  0  0  0  0  0
   -4.0591   -2.3141   -1.0022 C   0  0  2  0  0  0  0  0  0  0  0  0
   -4.1531   -3.7234   -1.6102 C   0  0  0  0  0  0  0  0  0  0  0  0
   -2.9551   -4.0813   -2.4942 C   0  0  0  0  0  0  0  0  0  0  0  0
   -2.6674   -3.0582   -3.4992 N   0  3  2  0  0  0  0  0  0  0  0  0
   -1.6003   -3.4374   -4.4416 C   0  0  0  0  0  0  0  0  0  0  0  0
   -0.1961   -3.5591   -3.8866 C   0  0  0  0  0  0  0  0  0  0  0  0
    0.7736   -2.5927   -4.1926 C   0  0  0  0  0  0  0  0  0  0  0  0
    2.0704   -2.7099   -3.6935 C   0  0  0  0  0  0  0  0  0  0  0  0
    2.4061   -3.7800   -2.8685 C   0  0  0  0  0  0  0  0  0  0  0  0
    1.4578   -4.7440   -2.5506 C   0  0  0  0  0  0  0  0  0  0  0  0
    0.1744   -4.6490   -3.0827 C   0  0  0  0  0  0  0  0  0  0  0  0
   -2.4782   -1.7291   -2.9182 C   0  0  0  0  0  0  0  0  0  0  0  0
   -3.7396   -1.3396   -2.1455 C   0  0  0  0  0  0  0  0  0  0  0  0
   -1.9747    1.7564    0.1659 H   0  0  0  0  0  0  0  0  0  0  0  0
   -2.6263    0.2755    0.8258 H   0  0  0  0  0  0  0  0  0  0  0  0
   -2.1057    0.3344   -0.8411 H   0  0  0  0  0  0  0  0  0  0  0  0
    2.1656    1.2537    1.5697 H   0  0  0  0  0  0  0  0  0  0  0  0
    3.6908   -4.2867    0.6906 H   0  0  0  0  0  0  0  0  0  0  0  0
    4.2023   -3.0259    1.8191 H   0  0  0  0  0  0  0  0  0  0  0  0
    4.9532   -3.3376   -1.0568 H   0  0  0  0  0  0  0  0  0  0  0  0
    6.0020   -3.2871    0.3498 H   0  0  0  0  0  0  0  0  0  0  0  0
    3.8393    0.6957    0.0852 H   0  0  0  0  0  0  0  0  0  0  0  0
    3.7248    3.1092   -0.1019 H   0  0  0  0  0  0  0  0  0  0  0  0
    1.9054    8.1602   -8.3148 H   0  0  0  0  0  0  0  0  0  0  0  0
    3.6103    8.5147  -10.0093 H   0  0  0  0  0  0  0  0  0  0  0  0
    5.9313    8.7722   -9.3389 H   0  0  0  0  0  0  0  0  0  0  0  0
    5.1974   11.0884   -5.7512 H   0  0  0  0  0  0  0  0  0  0  0  0
    6.1552   12.7333   -3.9687 H   0  0  0  0  0  0  0  0  0  0  0  0
    5.8870    8.9731   -2.2567 H   0  0  0  0  0  0  0  0  0  0  0  0
    9.6514   15.0521   -1.0535 H   0  0  0  0  0  0  0  0  0  0  0  0
    7.8830   16.7180   -1.0271 H   0  0  0  0  0  0  0  0  0  0  0  0
    5.5631   16.0120   -1.1719 H   0  0  0  0  0  0  0  0  0  0  0  0
    6.2927    8.7005    6.4524 H   0  0  0  0  0  0  0  0  0  0  0  0
    8.2831    7.4435    7.0547 H   0  0  0  0  0  0  0  0  0  0  0  0
    9.6359    6.4292    5.3099 H   0  0  0  0  0  0  0  0  0  0  0  0
    6.6002    5.2149    2.8414 H   0  0  0  0  0  0  0  0  0  0  0  0
    6.0491    3.5514    1.0060 H   0  0  0  0  0  0  0  0  0  0  0  0
    5.8840    7.3613   -0.6445 H   0  0  0  0  0  0  0  0  0  0  0  0
    7.7115   10.4250    2.8995 H   0  0  0  0  0  0  0  0  0  0  0  0
    7.5176   12.3042    1.1719 H   0  0  0  0  0  0  0  0  0  0  0  0
    4.1658    5.8047   -5.7368 H   0  0  0  0  0  0  0  0  0  0  0  0
    4.2059    3.9443   -3.9766 H   0  0  0  0  0  0  0  0  0  0  0  0
    6.7051    3.0017   -3.0757 H   0  0  0  0  0  0  0  0  0  0  0  0
    6.5741    0.5771   -3.1045 H   0  0  0  0  0  0  0  0  0  0  0  0
   -1.7911   -3.6036   -0.2332 H   0  0  0  0  0  0  0  0  0  0  0  0
   -3.1331   -1.2000    0.5686 H   0  0  0  0  0  0  0  0  0  0  0  0
   -3.6528   -2.8837    0.9789 H   0  0  0  0  0  0  0  0  0  0  0  0
   -4.9977   -2.0148   -0.5846 H   0  0  0  0  0  0  0  0  0  0  0  0
   -5.0419   -3.7790   -2.2034 H   0  0  0  0  0  0  0  0  0  0  0  0
   -4.1673   -4.4194   -0.7977 H   0  0  0  0  0  0  0  0  0  0  0  0
   -3.1631   -5.0037   -2.9950 H   0  0  0  0  0  0  0  0  0  0  0  0
   -2.0976   -4.1595   -1.8590 H   0  0  0  0  0  0  0  0  0  0  0  0
   -3.5106   -2.9963   -4.0698 H   0  0  0  0  0  0  0  0  0  0  0  0
   -1.5774   -2.6990   -5.2156 H   0  0  0  0  0  0  0  0  0  0  0  0
   -1.8556   -4.4253   -4.7636 H   0  0  0  0  0  0  0  0  0  0  0  0
    0.5255   -1.7895   -4.7912 H   0  0  0  0  0  0  0  0  0  0  0  0
    2.7819   -2.0028   -3.9359 H   0  0  0  0  0  0  0  0  0  0  0  0
    3.3637   -3.8574   -2.4915 H   0  0  0  0  0  0  0  0  0  0  0  0
    1.7030   -5.5262   -1.9236 H   0  0  0  0  0  0  0  0  0  0  0  0
   -0.5147   -5.3908   -2.8832 H   0  0  0  0  0  0  0  0  0  0  0  0
   -2.3015   -1.0184   -3.6983 H   0  0  0  0  0  0  0  0  0  0  0  0
   -1.6376   -1.7401   -2.2563 H   0  0  0  0  0  0  0  0  0  0  0  0
   -3.6003   -0.3621   -1.7332 H   0  0  0  0  0  0  0  0  0  0  0  0
   -4.5601   -1.3664   -2.8317 H   0  0  0  0  0  0  0  0  0  0  0  0
  1  2  1  0  0  0  0
  1 86  1  0  0  0  0
  1 87  1  0  0  0  0
  1 88  1  0  0  0  0
  2  3  1  0  0  0  0
  2 68  1  0  0  0  0
  3  4  2  0  0  0  0
  4  5  1  0  0  0  0
  4 89  1  0  0  0  0
  5  6  1  0  0  0  0
  5 68  2  0  0  0  0
  6  7  2  0  0  0  0
  6  8  1  0  0  0  0
  8  9  1  0  0  0  0
  9 10  1  0  0  0  0
  9 90  1  0  0  0  0
  9 91  1  0  0  0  0
 10 11  1  0  0  0  0
 10 92  1  0  0  0  0
 10 93  1  0  0  0  0
 11 12  1  0  0  0  0
 12 13  2  0  0  0  0
 12 14  1  0  0  0  0
 14 15  1  0  0  0  0
 14 67  2  0  0  0  0
 15 16  2  0  0  0  0
 15 94  1  0  0  0  0
 16 17  1  0  0  0  0
 16 95  1  0  0  0  0
 17 18  1  0  0  0  0
 17 66  2  0  0  0  0
 18 19  1  0  0  0  0
 18 60  2  0  0  0  0
 19 20  2  0  0  0  0
 19 65  1  0  0  0  0
 20 21  1  0  0  0  0
 21 22  2  0  0  0  0
 21 64  1  0  0  0  0
 22 23  1  0  0  0  0
 22 31  1  0  0  0  0
 23 24  1  0  0  0  0
 23 29  2  0  0  0  0
 24 25  1  0  0  0  0
 24 26  2  0  0  0  0
 26 27  1  0  0  0  0
 26 96  1  0  0  0  0
 27 28  2  0  0  0  0
 27 97  1  0  0  0  0
 28 29  1  0  0  0  0
 28 98  1  0  0  0  0
 29 30  1  0  0  0  0
 31 32  2  0  0  0  0
 31 35  1  0  0  0  0
 32 33  1  0  0  0  0
 32 99  1  0  0  0  0
 33 34  2  0  0  0  0
 33100  1  0  0  0  0
 34 35  1  0  0  0  0
 34 36  1  0  0  0  0
 35101  1  0  0  0  0
 36 37  1  0  0  0  0
 36 45  2  0  0  0  0
 37 38  1  0  0  0  0
 37 43  2  0  0  0  0
 38 39  1  0  0  0  0
 38 40  2  0  0  0  0
 40 41  1  0  0  0  0
 40102  1  0  0  0  0
 41 42  2  0  0  0  0
 41103  1  0  0  0  0
 42 43  1  0  0  0  0
 42104  1  0  0  0  0
 43 44  1  0  0  0  0
 45 46  1  0  0  0  0
 45 63  1  0  0  0  0
 46 47  2  0  0  0  0
 47 48  1  0  0  0  0
 47 62  1  0  0  0  0
 48 49  1  0  0  0  0
 48 57  2  0  0  0  0
 49 50  1  0  0  0  0
 49 55  2  0  0  0  0
 50 51  1  0  0  0  0
 50 52  2  0  0  0  0
 52 53  1  0  0  0  0
 52105  1  0  0  0  0
 53 54  2  0  0  0  0
 53106  1  0  0  0  0
 54 55  1  0  0  0  0
 54107  1  0  0  0  0
 55 56  1  0  0  0  0
 57 58  1  0  0  0  0
 57 61  1  0  0  0  0
 58 59  2  0  0  0  0
 58108  1  0  0  0  0
 59 60  1  0  0  0  0
 59109  1  0  0  0  0
 60 61  1  0  0  0  0
 61110  1  0  0  0  0
 62 63  2  0  0  0  0
 62111  1  0  0  0  0
 63112  1  0  0  0  0
 64 65  2  0  0  0  0
 64113  1  0  0  0  0
 65114  1  0  0  0  0
 66 67  1  0  0  0  0
 66115  1  0  0  0  0
 67116  1  0  0  0  0
 68 69  1  0  0  0  0
 69 70  2  0  0  0  0
 69 71  1  0  0  0  0
 71 72  1  0  0  0  0
 71117  1  0  0  0  0
 72 73  1  0  0  0  0
 72118  1  0  0  0  0
 72119  1  0  0  0  0
 73 74  1  0  0  0  0
 73 85  1  0  0  0  0
 73120  1  1  0  0  0
 74 75  1  0  0  0  0
 74121  1  0  0  0  0
 74122  1  0  0  0  0
 75 76  1  0  0  0  0
 75123  1  0  0  0  0
 75124  1  0  0  0  0
 76 77  1  0  0  0  0
 76 84  1  0  0  0  0
 76125  1  6  0  0  0
 77 78  1  0  0  0  0
 77126  1  0  0  0  0
 77127  1  0  0  0  0
 78 79  1  0  0  0  0
 78 83  2  0  0  0  0
 79 80  2  0  0  0  0
 79128  1  0  0  0  0
 80 81  1  0  0  0  0
 80129  1  0  0  0  0
 81 82  2  0  0  0  0
 81130  1  0  0  0  0
 82 83  1  0  0  0  0
 82131  1  0  0  0  0
 83132  1  0  0  0  0
 84 85  1  0  0  0  0
 84133  1  0  0  0  0
 84134  1  0  0  0  0
 85135  1  0  0  0  0
 85136  1  0  0  0  0
M  CHG  1  76   1
M  END
$$$$
