1_3_3416
 OpenBabel04152301363D

131141  0  0  1  0  0  0  0  0999 V2000
   -2.1454  -14.8118    2.4392 C   0  0  0  0  0  0  0  0  0  0  0  0
   -2.0919  -13.7944    1.3061 C   0  0  0  0  0  0  0  0  0  0  0  0
   -3.4668  -13.5454    0.6547 C   0  0  1  0  0  0  0  0  0  0  0  0
   -4.2955  -12.6637    1.5013 N   0  0  0  0  0  0  0  0  0  0  0  0
   -5.5398  -12.1413    1.2268 C   0  0  0  0  0  0  0  0  0  0  0  0
   -6.3731  -11.9966    2.1129 O   0  0  0  0  0  0  0  0  0  0  0  0
   -5.7958  -11.5974   -0.1165 C   0  0  0  0  0  0  0  0  0  0  0  0
   -5.2725  -10.3389   -0.4286 C   0  0  0  0  0  0  0  0  0  0  0  0
   -5.3216   -9.8757   -1.7445 C   0  0  0  0  0  0  0  0  0  0  0  0
   -5.8715  -10.6797   -2.7554 C   0  0  0  0  0  0  0  0  0  0  0  0
   -5.6754  -10.3222   -4.2081 C   0  0  0  0  0  0  0  0  0  0  0  0
   -6.3788   -9.1223   -4.5880 N   0  0  0  0  0  0  0  0  0  0  0  0
   -5.9053   -7.9245   -5.0350 C   0  0  0  0  0  0  0  0  0  0  0  0
   -6.7339   -7.0936   -5.4171 O   0  0  0  0  0  0  0  0  0  0  0  0
   -4.3887   -7.6304   -5.0500 C   0  0  1  0  0  0  0  0  0  0  0  0
   -3.8581   -7.5134   -6.4699 C   0  0  0  0  0  0  0  0  0  0  0  0
   -4.0658   -6.0514   -6.7848 C   0  0  0  0  0  0  0  0  0  0  0  0
   -3.8645   -5.3865   -5.4399 C   0  0  0  0  0  0  0  0  0  0  0  0
   -4.1141   -6.3680   -4.4234 O   0  0  0  0  0  0  0  0  0  0  0  0
   -6.4910  -11.8922   -2.4001 C   0  0  0  0  0  0  0  0  0  0  0  0
   -6.4728  -12.3456   -1.0763 C   0  0  0  0  0  0  0  0  0  0  0  0
   -3.2825  -13.1613   -0.8212 C   0  0  0  0  0  0  0  0  0  0  0  0
   -3.9817  -13.6438   -1.7076 O   0  0  0  0  0  0  0  0  0  0  0  0
   -2.3207  -12.2234   -1.0309 O   0  0  0  0  0  0  0  0  0  0  0  0
   -2.2414  -11.7127   -2.3763 C   0  0  0  0  0  0  0  0  0  0  0  0
   -1.3229  -12.5099   -3.3104 C   0  0  0  0  0  0  0  0  0  0  0  0
   -1.8827  -13.7871   -3.6716 O   0  0  0  0  0  0  0  0  0  0  0  0
   -1.5484  -14.8013   -2.8417 C   0  0  0  0  0  0  0  0  0  0  0  0
   -0.7669  -14.7417   -1.8999 O   0  0  0  0  0  0  0  0  0  0  0  0
   -2.3689  -15.9993   -3.1007 C   0  0  0  0  0  0  0  0  0  0  0  0
   -2.8995  -16.6656   -1.9875 C   0  0  0  0  0  0  0  0  0  0  0  0
   -3.5737  -17.8718   -2.1455 C   0  0  0  0  0  0  0  0  0  0  0  0
   -3.6966  -18.4355   -3.4200 C   0  0  0  0  0  0  0  0  0  0  0  0
   -4.1798  -19.8292   -3.5479 C   0  0  0  0  0  0  0  0  0  0  0  0
   -3.1688  -20.9352   -3.6636 C   0  0  0  0  0  0  0  0  0  0  0  0
   -3.3565  -22.2175   -3.8391 N   0  0  0  0  0  0  0  0  0  0  0  0
   -2.0874  -22.7800   -3.8863 C   0  0  0  0  0  0  0  0  0  0  0  0
   -1.7464  -24.0808   -4.0404 C   0  0  0  0  0  0  0  0  0  0  0  0
   -0.2844  -24.4057   -4.0992 C   0  0  0  0  0  0  0  0  0  0  0  0
    0.5262  -24.3854   -2.9575 C   0  0  0  0  0  0  0  0  0  0  0  0
    0.0158  -24.0345   -1.7675 F   0  0  0  0  0  0  0  0  0  0  0  0
    1.8873  -24.6892   -3.0253 C   0  0  0  0  0  0  0  0  0  0  0  0
    2.4610  -25.0472   -4.2443 C   0  0  0  0  0  0  0  0  0  0  0  0
    1.6698  -25.0874   -5.3906 C   0  0  0  0  0  0  0  0  0  0  0  0
    0.3153  -24.7609   -5.3138 C   0  0  0  0  0  0  0  0  0  0  0  0
   -0.4063  -24.7986   -6.4442 F   0  0  0  0  0  0  0  0  0  0  0  0
   -2.6937  -25.1535   -4.1822 C   0  0  0  0  0  0  0  0  0  0  0  0
   -2.4496  -26.5064   -4.3386 C   0  0  0  0  0  0  0  0  0  0  0  0
   -3.6800  -27.1582   -4.4763 C   0  0  0  0  0  0  0  0  0  0  0  0
   -4.6899  -26.2158   -4.3646 C   0  0  0  0  0  0  0  0  0  0  0  0
   -4.0706  -24.9906   -4.1864 N   0  0  0  0  0  0  0  0  0  0  0  0
   -6.1148  -26.4161   -4.4228 C   0  0  0  0  0  0  0  0  0  0  0  0
   -6.6140  -27.8140   -4.6337 C   0  0  0  0  0  0  0  0  0  0  0  0
   -7.1439  -28.2300   -5.8609 C   0  0  0  0  0  0  0  0  0  0  0  0
   -7.2686  -27.3626   -6.8767 F   0  0  0  0  0  0  0  0  0  0  0  0
   -7.5830  -29.5403   -6.0567 C   0  0  0  0  0  0  0  0  0  0  0  0
   -7.4742  -30.4726   -5.0259 C   0  0  0  0  0  0  0  0  0  0  0  0
   -6.9379  -30.0831   -3.8002 C   0  0  0  0  0  0  0  0  0  0  0  0
   -6.5228  -28.7649   -3.6094 C   0  0  0  0  0  0  0  0  0  0  0  0
   -6.0162  -28.4309   -2.4130 F   0  0  0  0  0  0  0  0  0  0  0  0
   -7.0451  -25.4405   -4.2810 C   0  0  0  0  0  0  0  0  0  0  0  0
   -6.8617  -24.0829   -4.0503 N   0  0  0  0  0  0  0  0  0  0  0  0
   -8.0635  -23.5606   -3.9992 C   0  0  0  0  0  0  0  0  0  0  0  0
   -8.4686  -22.1317   -3.7540 C   0  0  0  0  0  0  0  0  0  0  0  0
   -9.9019  -21.7490   -3.7177 C   0  0  0  0  0  0  0  0  0  0  0  0
  -10.7326  -22.1471   -2.6647 C   0  0  0  0  0  0  0  0  0  0  0  0
  -10.2428  -22.8933   -1.6638 F   0  0  0  0  0  0  0  0  0  0  0  0
  -12.0896  -21.8200   -2.6411 C   0  0  0  0  0  0  0  0  0  0  0  0
  -12.6399  -21.0600   -3.6718 C   0  0  0  0  0  0  0  0  0  0  0  0
  -11.8291  -20.6413   -4.7247 C   0  0  0  0  0  0  0  0  0  0  0  0
  -10.4793  -20.9947   -4.7464 C   0  0  0  0  0  0  0  0  0  0  0  0
   -9.7364  -20.5855   -5.7853 F   0  0  0  0  0  0  0  0  0  0  0  0
   -7.5153  -21.1945   -3.5908 C   0  0  0  0  0  0  0  0  0  0  0  0
   -7.7459  -19.7698   -3.3601 C   0  0  0  0  0  0  0  0  0  0  0  0
   -6.5634  -19.1307   -3.3345 C   0  0  0  0  0  0  0  0  0  0  0  0
   -5.4934  -20.1105   -3.5120 C   0  0  0  0  0  0  0  0  0  0  0  0
   -6.1479  -21.3106   -3.6245 N   0  0  0  0  0  0  0  0  0  0  0  0
   -9.1480  -24.5292   -4.2165 C   0  0  0  0  0  0  0  0  0  0  0  0
   -8.4746  -25.6634   -4.3502 C   0  0  0  0  0  0  0  0  0  0  0  0
   -1.1367  -21.7001   -3.7351 C   0  0  0  0  0  0  0  0  0  0  0  0
   -1.7538  -20.5406   -3.5642 C   0  0  0  0  0  0  0  0  0  0  0  0
   -3.2134  -17.7385   -4.5425 C   0  0  0  0  0  0  0  0  0  0  0  0
   -2.5493  -16.5166   -4.3852 C   0  0  0  0  0  0  0  0  0  0  0  0
   -1.1655  -14.9410    2.8491 H   0  0  0  0  0  0  0  0  0  0  0  0
   -2.5004  -15.7479    2.0616 H   0  0  0  0  0  0  0  0  0  0  0  0
   -2.8079  -14.4609    3.2026 H   0  0  0  0  0  0  0  0  0  0  0  0
   -1.4194  -14.1546    0.5559 H   0  0  0  0  0  0  0  0  0  0  0  0
   -1.7632  -12.8661    1.7247 H   0  0  0  0  0  0  0  0  0  0  0  0
   -4.0540  -14.4387    0.6090 H   0  0  0  0  0  0  0  0  0  0  0  0
   -3.9092  -12.4181    2.3729 H   0  0  0  0  0  0  0  0  0  0  0  0
   -4.8517   -9.7549    0.3109 H   0  0  0  0  0  0  0  0  0  0  0  0
   -4.9527   -8.9398   -1.9748 H   0  0  0  0  0  0  0  0  0  0  0  0
   -6.0307  -11.1320   -4.8105 H   0  0  0  0  0  0  0  0  0  0  0  0
   -4.6310  -10.1445   -4.3580 H   0  0  0  0  0  0  0  0  0  0  0  0
   -7.3589   -9.1767   -4.5124 H   0  0  0  0  0  0  0  0  0  0  0  0
   -3.9209   -8.4420   -4.5330 H   0  0  0  0  0  0  0  0  0  0  0  0
   -4.4130   -8.1349   -7.1412 H   0  0  0  0  0  0  0  0  0  0  0  0
   -2.8402   -7.8278   -6.5691 H   0  0  0  0  0  0  0  0  0  0  0  0
   -5.0526   -5.8741   -7.1585 H   0  0  0  0  0  0  0  0  0  0  0  0
   -3.4057   -5.6834   -7.5422 H   0  0  0  0  0  0  0  0  0  0  0  0
   -4.5468   -4.5693   -5.3321 H   0  0  0  0  0  0  0  0  0  0  0  0
   -2.8676   -5.0070   -5.3562 H   0  0  0  0  0  0  0  0  0  0  0  0
   -6.9646  -12.4540   -3.1247 H   0  0  0  0  0  0  0  0  0  0  0  0
   -6.9535  -13.2207   -0.8154 H   0  0  0  0  0  0  0  0  0  0  0  0
   -1.8786  -10.7071   -2.3304 H   0  0  0  0  0  0  0  0  0  0  0  0
   -3.2270  -11.7859   -2.7863 H   0  0  0  0  0  0  0  0  0  0  0  0
   -0.3875  -12.6718   -2.8167 H   0  0  0  0  0  0  0  0  0  0  0  0
   -1.1987  -11.9421   -4.2088 H   0  0  0  0  0  0  0  0  0  0  0  0
   -2.7893  -16.2589   -1.0454 H   0  0  0  0  0  0  0  0  0  0  0  0
   -3.9815  -18.3488   -1.3262 H   0  0  0  0  0  0  0  0  0  0  0  0
    2.4683  -24.6487   -2.1734 H   0  0  0  0  0  0  0  0  0  0  0  0
    3.4648  -25.2809   -4.2974 H   0  0  0  0  0  0  0  0  0  0  0  0
    2.0852  -25.3584   -6.2956 H   0  0  0  0  0  0  0  0  0  0  0  0
   -1.5211  -26.9566   -4.3515 H   0  0  0  0  0  0  0  0  0  0  0  0
   -3.8129  -28.1693   -4.6343 H   0  0  0  0  0  0  0  0  0  0  0  0
   -4.5385  -24.1311   -4.0786 H   0  0  0  0  0  0  0  0  0  0  0  0
   -7.9880  -29.8189   -6.9641 H   0  0  0  0  0  0  0  0  0  0  0  0
   -7.7888  -31.4449   -5.1697 H   0  0  0  0  0  0  0  0  0  0  0  0
   -6.8479  -30.7690   -3.0344 H   0  0  0  0  0  0  0  0  0  0  0  0
  -12.6847  -22.1406   -1.8613 H   0  0  0  0  0  0  0  0  0  0  0  0
  -13.6408  -20.8092   -3.6552 H   0  0  0  0  0  0  0  0  0  0  0  0
  -12.2262  -20.0707   -5.4874 H   0  0  0  0  0  0  0  0  0  0  0  0
   -8.6691  -19.3254   -3.2366 H   0  0  0  0  0  0  0  0  0  0  0  0
   -6.4326  -18.1146   -3.2099 H   0  0  0  0  0  0  0  0  0  0  0  0
   -5.6818  -22.1725   -3.7202 H   0  0  0  0  0  0  0  0  0  0  0  0
  -10.1667  -24.3684   -4.2549 H   0  0  0  0  0  0  0  0  0  0  0  0
   -8.9132  -26.5876   -4.4863 H   0  0  0  0  0  0  0  0  0  0  0  0
   -0.1117  -21.8178   -3.7575 H   0  0  0  0  0  0  0  0  0  0  0  0
   -1.3487  -19.6052   -3.4034 H   0  0  0  0  0  0  0  0  0  0  0  0
   -3.3494  -18.1305   -5.4874 H   0  0  0  0  0  0  0  0  0  0  0  0
   -2.1971  -16.0040   -5.2087 H   0  0  0  0  0  0  0  0  0  0  0  0
  1  2  1  0  0  0  0
  1 84  1  0  0  0  0
  1 85  1  0  0  0  0
  1 86  1  0  0  0  0
  2  3  1  0  0  0  0
  2 87  1  0  0  0  0
  2 88  1  0  0  0  0
  3  4  1  0  0  0  0
  3 22  1  0  0  0  0
  3 89  1  6  0  0  0
  4  5  1  0  0  0  0
  4 90  1  0  0  0  0
  5  6  2  0  0  0  0
  5  7  1  0  0  0  0
  7  8  1  0  0  0  0
  7 21  2  0  0  0  0
  8  9  2  0  0  0  0
  8 91  1  0  0  0  0
  9 10  1  0  0  0  0
  9 92  1  0  0  0  0
 10 11  1  0  0  0  0
 10 20  2  0  0  0  0
 11 12  1  0  0  0  0
 11 93  1  0  0  0  0
 11 94  1  0  0  0  0
 12 13  1  0  0  0  0
 12 95  1  0  0  0  0
 13 14  2  0  0  0  0
 15 16  1  0  0  0  0
 15 19  1  0  0  0  0
 15 13  1  0  0  0  0
 15 96  1  1  0  0  0
 16 17  1  0  0  0  0
 16 97  1  0  0  0  0
 16 98  1  0  0  0  0
 17 18  1  0  0  0  0
 17 99  1  0  0  0  0
 17100  1  0  0  0  0
 18 19  1  0  0  0  0
 18101  1  0  0  0  0
 18102  1  0  0  0  0
 20 21  1  0  0  0  0
 20103  1  0  0  0  0
 21104  1  0  0  0  0
 22 23  2  0  0  0  0
 22 24  1  0  0  0  0
 24 25  1  0  0  0  0
 25 26  1  0  0  0  0
 25105  1  0  0  0  0
 25106  1  0  0  0  0
 26 27  1  0  0  0  0
 26107  1  0  0  0  0
 26108  1  0  0  0  0
 27 28  1  0  0  0  0
 28 29  2  0  0  0  0
 28 30  1  0  0  0  0
 30 31  1  0  0  0  0
 30 83  2  0  0  0  0
 31 32  2  0  0  0  0
 31109  1  0  0  0  0
 32 33  1  0  0  0  0
 32110  1  0  0  0  0
 33 34  1  0  0  0  0
 33 82  2  0  0  0  0
 34 35  1  0  0  0  0
 34 76  2  0  0  0  0
 35 36  2  0  0  0  0
 35 81  1  0  0  0  0
 36 37  1  0  0  0  0
 37 38  2  0  0  0  0
 37 80  1  0  0  0  0
 38 39  1  0  0  0  0
 38 47  1  0  0  0  0
 39 40  1  0  0  0  0
 39 45  2  0  0  0  0
 40 41  1  0  0  0  0
 40 42  2  0  0  0  0
 42 43  1  0  0  0  0
 42111  1  0  0  0  0
 43 44  2  0  0  0  0
 43112  1  0  0  0  0
 44 45  1  0  0  0  0
 44113  1  0  0  0  0
 45 46  1  0  0  0  0
 47 48  2  0  0  0  0
 47 51  1  0  0  0  0
 48 49  1  0  0  0  0
 48114  1  0  0  0  0
 49 50  2  0  0  0  0
 49115  1  0  0  0  0
 50 51  1  0  0  0  0
 50 52  1  0  0  0  0
 51116  1  0  0  0  0
 52 53  1  0  0  0  0
 52 61  2  0  0  0  0
 53 54  1  0  0  0  0
 53 59  2  0  0  0  0
 54 55  1  0  0  0  0
 54 56  2  0  0  0  0
 56 57  1  0  0  0  0
 56117  1  0  0  0  0
 57 58  2  0  0  0  0
 57118  1  0  0  0  0
 58 59  1  0  0  0  0
 58119  1  0  0  0  0
 59 60  1  0  0  0  0
 61 62  1  0  0  0  0
 61 79  1  0  0  0  0
 62 63  2  0  0  0  0
 63 64  1  0  0  0  0
 63 78  1  0  0  0  0
 64 65  1  0  0  0  0
 64 73  2  0  0  0  0
 65 66  1  0  0  0  0
 65 71  2  0  0  0  0
 66 67  1  0  0  0  0
 66 68  2  0  0  0  0
 68 69  1  0  0  0  0
 68120  1  0  0  0  0
 69 70  2  0  0  0  0
 69121  1  0  0  0  0
 70 71  1  0  0  0  0
 70122  1  0  0  0  0
 71 72  1  0  0  0  0
 73 74  1  0  0  0  0
 73 77  1  0  0  0  0
 74 75  2  0  0  0  0
 74123  1  0  0  0  0
 75 76  1  0  0  0  0
 75124  1  0  0  0  0
 76 77  1  0  0  0  0
 77125  1  0  0  0  0
 78 79  2  0  0  0  0
 78126  1  0  0  0  0
 79127  1  0  0  0  0
 80 81  2  0  0  0  0
 80128  1  0  0  0  0
 81129  1  0  0  0  0
 82 83  1  0  0  0  0
 82130  1  0  0  0  0
 83131  1  0  0  0  0
M  END
$$$$
