1_3_8200
 OpenBabel04152301363D

121131  0  0  1  0  0  0  0  0999 V2000
    1.7939   -0.1198   -0.7413 C   0  0  0  0  0  0  0  0  0  0  0  0
    0.8621   -0.0795    0.4713 C   0  0  2  0  0  0  0  0  0  0  0  0
   -0.1145   -1.2562    0.4702 C   0  0  0  0  0  0  0  0  0  0  0  0
   -1.2885   -0.8077   -0.3947 C   0  0  0  0  0  0  0  0  0  0  0  0
   -1.2297    0.7207   -0.4559 C   0  0  0  0  0  0  0  0  0  0  0  0
   -0.0630    1.1483    0.4393 C   0  0  1  0  0  0  0  0  0  0  0  0
   -0.5439    1.4680    1.7821 N   0  0  0  0  0  0  0  0  0  0  0  0
   -0.3035    2.5510    2.5884 C   0  0  0  0  0  0  0  0  0  0  0  0
   -0.6041    2.4635    3.7780 O   0  0  0  0  0  0  0  0  0  0  0  0
    0.3043    3.7649    2.0525 C   0  0  0  0  0  0  0  0  0  0  0  0
    0.0099    4.3445    0.8352 C   0  0  0  0  0  0  0  0  0  0  0  0
    0.8942    5.7732    0.5464 S   0  0  0  0  0  0  0  0  0  0  0  0
    1.6203    5.7425    2.1098 C   0  0  0  0  0  0  0  0  0  0  0  0
    2.5287    6.7518    2.5594 C   0  0  0  0  0  0  0  0  0  0  0  0
    2.4420    8.0281    2.1541 C   0  0  0  0  0  0  0  0  0  0  0  0
    3.3677    9.1146    2.5272 C   0  0  0  0  0  0  0  0  0  0  0  0
    3.2273   10.2418    2.0738 O   0  0  0  0  0  0  0  0  0  0  0  0
    4.3657    8.7007    3.3418 O   0  0  0  0  0  0  0  0  0  0  0  0
    5.3868    9.6769    3.6212 C   0  0  0  0  0  0  0  0  0  0  0  0
    6.6248    9.4633    2.7441 C   0  0  0  0  0  0  0  0  0  0  0  0
    6.3604    9.7397    1.3558 O   0  0  0  0  0  0  0  0  0  0  0  0
    5.9516    8.6762    0.6223 C   0  0  0  0  0  0  0  0  0  0  0  0
    5.8151    7.5264    1.0033 O   0  0  0  0  0  0  0  0  0  0  0  0
    5.5654    9.1236   -0.7281 C   0  0  0  0  0  0  0  0  0  0  0  0
    4.2978    8.7705   -1.2018 C   0  0  0  0  0  0  0  0  0  0  0  0
    3.9102    9.1302   -2.4919 C   0  0  0  0  0  0  0  0  0  0  0  0
    4.7938    9.8335   -3.3224 C   0  0  0  0  0  0  0  0  0  0  0  0
    4.3968   10.1786   -4.7088 C   0  0  0  0  0  0  0  0  0  0  0  0
    4.9365    9.3873   -5.8648 C   0  0  0  0  0  0  0  0  0  0  0  0
    4.7651    9.5755   -7.1487 N   0  0  0  0  0  0  0  0  0  0  0  0
    5.4771    8.5630   -7.7779 C   0  0  0  0  0  0  0  0  0  0  0  0
    5.5897    8.3078   -9.1034 C   0  0  0  0  0  0  0  0  0  0  0  0
    6.4337    7.1379   -9.5124 C   0  0  0  0  0  0  0  0  0  0  0  0
    5.9931    5.8189   -9.3469 C   0  0  0  0  0  0  0  0  0  0  0  0
    4.8120    5.5647   -8.7636 F   0  0  0  0  0  0  0  0  0  0  0  0
    6.7717    4.7339   -9.7541 C   0  0  0  0  0  0  0  0  0  0  0  0
    8.0063    4.9524  -10.3628 C   0  0  0  0  0  0  0  0  0  0  0  0
    8.4594    6.2570  -10.5483 C   0  0  0  0  0  0  0  0  0  0  0  0
    7.6813    7.3329  -10.1179 C   0  0  0  0  0  0  0  0  0  0  0  0
    8.1586    8.5717  -10.3111 F   0  0  0  0  0  0  0  0  0  0  0  0
    4.9680    9.0914  -10.1391 C   0  0  0  0  0  0  0  0  0  0  0  0
    5.0213    8.9075  -11.5103 C   0  0  0  0  0  0  0  0  0  0  0  0
    4.3006    9.9404  -12.1194 C   0  0  0  0  0  0  0  0  0  0  0  0
    3.7653   10.7440  -11.1261 C   0  0  0  0  0  0  0  0  0  0  0  0
    4.1827   10.2122   -9.9169 N   0  0  0  0  0  0  0  0  0  0  0  0
    2.9426   11.9175  -11.2681 C   0  0  0  0  0  0  0  0  0  0  0  0
    2.6158   12.3804  -12.6565 C   0  0  0  0  0  0  0  0  0  0  0  0
    3.2210   13.5120  -13.2165 C   0  0  0  0  0  0  0  0  0  0  0  0
    4.0778   14.2514  -12.4962 F   0  0  0  0  0  0  0  0  0  0  0  0
    2.9341   13.9209  -14.5199 C   0  0  0  0  0  0  0  0  0  0  0  0
    2.0469   13.1831  -15.3019 C   0  0  0  0  0  0  0  0  0  0  0  0
    1.4408   12.0475  -14.7681 C   0  0  0  0  0  0  0  0  0  0  0  0
    1.7189   11.6611  -13.4564 C   0  0  0  0  0  0  0  0  0  0  0  0
    1.1107   10.5641  -12.9809 F   0  0  0  0  0  0  0  0  0  0  0  0
    2.4230   12.6288  -10.2385 C   0  0  0  0  0  0  0  0  0  0  0  0
    2.5487   12.4066   -8.8734 N   0  0  0  0  0  0  0  0  0  0  0  0
    1.8779   13.3693   -8.2892 C   0  0  0  0  0  0  0  0  0  0  0  0
    1.6583   13.6182   -6.8222 C   0  0  0  0  0  0  0  0  0  0  0  0
    0.8286   14.7621   -6.3690 C   0  0  0  0  0  0  0  0  0  0  0  0
   -0.5557   14.7768   -6.5714 C   0  0  0  0  0  0  0  0  0  0  0  0
   -1.1588   13.7490   -7.1867 F   0  0  0  0  0  0  0  0  0  0  0  0
   -1.3390   15.8650   -6.1834 C   0  0  0  0  0  0  0  0  0  0  0  0
   -0.7467   16.9598   -5.5562 C   0  0  0  0  0  0  0  0  0  0  0  0
    0.6284   16.9613   -5.3311 C   0  0  0  0  0  0  0  0  0  0  0  0
    1.4024   15.8771   -5.7460 C   0  0  0  0  0  0  0  0  0  0  0  0
    2.7247   15.9251   -5.5271 F   0  0  0  0  0  0  0  0  0  0  0  0
    2.2410   12.8067   -5.9192 C   0  0  0  0  0  0  0  0  0  0  0  0
    2.1393   12.9384   -4.4680 C   0  0  0  0  0  0  0  0  0  0  0  0
    2.9211   12.0134   -3.8867 C   0  0  0  0  0  0  0  0  0  0  0  0
    3.5454   11.1973   -4.9277 C   0  0  0  0  0  0  0  0  0  0  0  0
    3.0636   11.7220   -6.1006 N   0  0  0  0  0  0  0  0  0  0  0  0
    1.2675   14.3274   -9.2230 C   0  0  0  0  0  0  0  0  0  0  0  0
    1.6020   13.8110  -10.3973 C   0  0  0  0  0  0  0  0  0  0  0  0
    6.1044    7.7774   -6.7355 C   0  0  0  0  0  0  0  0  0  0  0  0
    5.7788    8.2284   -5.5317 C   0  0  0  0  0  0  0  0  0  0  0  0
    6.0660   10.1850   -2.8384 C   0  0  0  0  0  0  0  0  0  0  0  0
    6.4543    9.8301   -1.5423 C   0  0  0  0  0  0  0  0  0  0  0  0
    1.2190    4.6020    2.7865 C   0  0  0  0  0  0  0  0  0  0  0  0
    2.4192   -0.9860   -0.6819 H   0  0  0  0  0  0  0  0  0  0  0  0
    2.4031    0.7598   -0.7524 H   0  0  0  0  0  0  0  0  0  0  0  0
    1.2111   -0.1614   -1.6377 H   0  0  0  0  0  0  0  0  0  0  0  0
    1.5177   -0.0823    1.3169 H   0  0  0  0  0  0  0  0  0  0  0  0
   -0.4433   -1.4707    1.4656 H   0  0  0  0  0  0  0  0  0  0  0  0
    0.3389   -2.1492    0.0935 H   0  0  0  0  0  0  0  0  0  0  0  0
   -2.2118   -1.1241    0.0437 H   0  0  0  0  0  0  0  0  0  0  0  0
   -1.2310   -1.2350   -1.3740 H   0  0  0  0  0  0  0  0  0  0  0  0
   -2.1454    1.1404   -0.0950 H   0  0  0  0  0  0  0  0  0  0  0  0
   -1.0914    1.0622   -1.4605 H   0  0  0  0  0  0  0  0  0  0  0  0
    0.4354    2.0234    0.0777 H   0  0  0  0  0  0  0  0  0  0  0  0
   -1.1417    0.7911    2.1742 H   0  0  0  0  0  0  0  0  0  0  0  0
   -0.6745    3.9537    0.1689 H   0  0  0  0  0  0  0  0  0  0  0  0
    3.2776    6.4890    3.2191 H   0  0  0  0  0  0  0  0  0  0  0  0
    1.6595    8.2708    1.5266 H   0  0  0  0  0  0  0  0  0  0  0  0
    5.6716    9.5972    4.6495 H   0  0  0  0  0  0  0  0  0  0  0  0
    4.9894   10.6475    3.4094 H   0  0  0  0  0  0  0  0  0  0  0  0
    6.9431    8.4461    2.8387 H   0  0  0  0  0  0  0  0  0  0  0  0
    7.3839   10.1406    3.0757 H   0  0  0  0  0  0  0  0  0  0  0  0
    3.6491    8.2436   -0.5963 H   0  0  0  0  0  0  0  0  0  0  0  0
    2.9706    8.8781   -2.8362 H   0  0  0  0  0  0  0  0  0  0  0  0
    6.4332    3.7705   -9.6044 H   0  0  0  0  0  0  0  0  0  0  0  0
    8.5809    4.1536  -10.6739 H   0  0  0  0  0  0  0  0  0  0  0  0
    9.3697    6.4276  -11.0036 H   0  0  0  0  0  0  0  0  0  0  0  0
    5.5088    8.1404  -11.9990 H   0  0  0  0  0  0  0  0  0  0  0  0
    4.1871   10.0799  -13.1356 H   0  0  0  0  0  0  0  0  0  0  0  0
    3.9553   10.5763   -9.0309 H   0  0  0  0  0  0  0  0  0  0  0  0
    3.3787   14.7691  -14.9045 H   0  0  0  0  0  0  0  0  0  0  0  0
    1.8403   13.4759  -16.2697 H   0  0  0  0  0  0  0  0  0  0  0  0
    0.7869   11.4928  -15.3423 H   0  0  0  0  0  0  0  0  0  0  0  0
   -2.3556   15.8590   -6.3607 H   0  0  0  0  0  0  0  0  0  0  0  0
   -1.3225   17.7636   -5.2606 H   0  0  0  0  0  0  0  0  0  0  0  0
    1.0737   17.7632   -4.8582 H   0  0  0  0  0  0  0  0  0  0  0  0
    1.5596   13.6312   -3.9691 H   0  0  0  0  0  0  0  0  0  0  0  0
    3.0589   11.8974   -2.8705 H   0  0  0  0  0  0  0  0  0  0  0  0
    3.2863   11.3560   -6.9870 H   0  0  0  0  0  0  0  0  0  0  0  0
    0.7216   15.1789   -9.0179 H   0  0  0  0  0  0  0  0  0  0  0  0
    1.3141   14.2016  -11.3081 H   0  0  0  0  0  0  0  0  0  0  0  0
    6.7247    6.9707   -6.9073 H   0  0  0  0  0  0  0  0  0  0  0  0
    6.0462    7.8624   -4.6046 H   0  0  0  0  0  0  0  0  0  0  0  0
    6.7179   10.7084   -3.4435 H   0  0  0  0  0  0  0  0  0  0  0  0
    7.3895   10.0879   -1.1904 H   0  0  0  0  0  0  0  0  0  0  0  0
    1.5478    4.3713    3.7371 H   0  0  0  0  0  0  0  0  0  0  0  0
  1  2  1  0  0  0  0
  1 79  1  0  0  0  0
  1 80  1  0  0  0  0
  1 81  1  0  0  0  0
  2  3  1  0  0  0  0
  2  6  1  0  0  0  0
  2 82  1  1  0  0  0
  3  4  1  0  0  0  0
  3 83  1  0  0  0  0
  3 84  1  0  0  0  0
  4  5  1  0  0  0  0
  4 85  1  0  0  0  0
  4 86  1  0  0  0  0
  5  6  1  0  0  0  0
  5 87  1  0  0  0  0
  5 88  1  0  0  0  0
  6  7  1  0  0  0  0
  6 89  1  6  0  0  0
  7  8  1  0  0  0  0
  7 90  1  0  0  0  0
  8  9  2  0  0  0  0
  8 10  1  0  0  0  0
 10 11  2  0  0  0  0
 10 78  1  0  0  0  0
 11 12  1  0  0  0  0
 11 91  1  0  0  0  0
 12 13  1  0  0  0  0
 13 14  1  0  0  0  0
 13 78  2  0  0  0  0
 14 15  2  0  0  0  0
 14 92  1  0  0  0  0
 15 16  1  0  0  0  0
 15 93  1  0  0  0  0
 16 17  2  0  0  0  0
 16 18  1  0  0  0  0
 18 19  1  0  0  0  0
 19 20  1  0  0  0  0
 19 94  1  0  0  0  0
 19 95  1  0  0  0  0
 20 21  1  0  0  0  0
 20 96  1  0  0  0  0
 20 97  1  0  0  0  0
 21 22  1  0  0  0  0
 22 23  2  0  0  0  0
 22 24  1  0  0  0  0
 24 25  1  0  0  0  0
 24 77  2  0  0  0  0
 25 26  2  0  0  0  0
 25 98  1  0  0  0  0
 26 27  1  0  0  0  0
 26 99  1  0  0  0  0
 27 28  1  0  0  0  0
 27 76  2  0  0  0  0
 28 29  1  0  0  0  0
 28 70  2  0  0  0  0
 29 30  2  0  0  0  0
 29 75  1  0  0  0  0
 30 31  1  0  0  0  0
 31 32  2  0  0  0  0
 31 74  1  0  0  0  0
 32 33  1  0  0  0  0
 32 41  1  0  0  0  0
 33 34  1  0  0  0  0
 33 39  2  0  0  0  0
 34 35  1  0  0  0  0
 34 36  2  0  0  0  0
 36 37  1  0  0  0  0
 36100  1  0  0  0  0
 37 38  2  0  0  0  0
 37101  1  0  0  0  0
 38 39  1  0  0  0  0
 38102  1  0  0  0  0
 39 40  1  0  0  0  0
 41 42  2  0  0  0  0
 41 45  1  0  0  0  0
 42 43  1  0  0  0  0
 42103  1  0  0  0  0
 43 44  2  0  0  0  0
 43104  1  0  0  0  0
 44 45  1  0  0  0  0
 44 46  1  0  0  0  0
 45105  1  0  0  0  0
 46 47  1  0  0  0  0
 46 55  2  0  0  0  0
 47 48  1  0  0  0  0
 47 53  2  0  0  0  0
 48 49  1  0  0  0  0
 48 50  2  0  0  0  0
 50 51  1  0  0  0  0
 50106  1  0  0  0  0
 51 52  2  0  0  0  0
 51107  1  0  0  0  0
 52 53  1  0  0  0  0
 52108  1  0  0  0  0
 53 54  1  0  0  0  0
 55 56  1  0  0  0  0
 55 73  1  0  0  0  0
 56 57  2  0  0  0  0
 57 58  1  0  0  0  0
 57 72  1  0  0  0  0
 58 59  1  0  0  0  0
 58 67  2  0  0  0  0
 59 60  1  0  0  0  0
 59 65  2  0  0  0  0
 60 61  1  0  0  0  0
 60 62  2  0  0  0  0
 62 63  1  0  0  0  0
 62109  1  0  0  0  0
 63 64  2  0  0  0  0
 63110  1  0  0  0  0
 64 65  1  0  0  0  0
 64111  1  0  0  0  0
 65 66  1  0  0  0  0
 67 68  1  0  0  0  0
 67 71  1  0  0  0  0
 68 69  2  0  0  0  0
 68112  1  0  0  0  0
 69 70  1  0  0  0  0
 69113  1  0  0  0  0
 70 71  1  0  0  0  0
 71114  1  0  0  0  0
 72 73  2  0  0  0  0
 72115  1  0  0  0  0
 73116  1  0  0  0  0
 74 75  2  0  0  0  0
 74117  1  0  0  0  0
 75118  1  0  0  0  0
 76 77  1  0  0  0  0
 76119  1  0  0  0  0
 77120  1  0  0  0  0
 78121  1  0  0  0  0
M  END
$$$$
