1_4_4825
 OpenBabel04152301363D

136146  0  0  1  0  0  0  0  0999 V2000
    0.9129   -0.9277    1.5740 C   0  0  0  0  0  0  0  0  0  0  0  0
   -0.2007   -0.7204    0.5305 C   0  0  0  0  0  0  0  0  0  0  0  0
    0.3953   -1.0393   -0.8608 C   0  0  0  0  0  0  0  0  0  0  0  0
   -1.3479   -1.6927    0.8422 C   0  0  0  0  0  0  0  0  0  0  0  0
   -2.5272   -1.1417    0.0667 C   0  0  0  0  0  0  0  0  0  0  0  0
   -2.4075    0.3704    0.2125 C   0  0  0  0  0  0  0  0  0  0  0  0
   -0.9208    0.6816    0.4880 C   0  0  1  0  0  0  0  0  0  0  0  0
   -0.8043    1.4723    1.7118 N   0  0  0  0  0  0  0  0  0  0  0  0
   -0.5168    2.7282    2.0516 C   0  0  0  0  0  0  0  0  0  0  0  0
   -0.6928    3.0250    3.2393 O   0  0  0  0  0  0  0  0  0  0  0  0
   -0.0268    3.7017    1.2838 N   0  0  0  0  0  0  0  0  0  0  0  0
    0.4540    3.9893   -0.0901 C   0  0  2  0  0  0  0  0  0  0  0  0
   -0.6347    3.8675   -1.1471 C   0  0  0  0  0  0  0  0  0  0  0  0
   -0.2797    2.7949   -2.0161 O   0  0  0  0  0  0  0  0  0  0  0  0
    1.1330    2.5806   -1.9185 C   0  0  0  0  0  0  0  0  0  0  0  0
    1.6553    3.1915   -0.6068 C   0  0  2  0  0  0  0  0  0  0  0  0
    2.1181    2.1521    0.4148 C   0  0  0  0  0  0  0  0  0  0  0  0
    2.8710    4.0495   -0.9903 C   0  0  0  0  0  0  0  0  0  0  0  0
    2.9333    4.7916   -1.9593 O   0  0  0  0  0  0  0  0  0  0  0  0
    3.9173    3.7922   -0.1606 O   0  0  0  0  0  0  0  0  0  0  0  0
    5.2349    3.6660   -0.7322 C   0  0  0  0  0  0  0  0  0  0  0  0
    5.6660    2.1900   -0.6287 C   0  0  0  0  0  0  0  0  0  0  0  0
    5.5193    1.4625   -1.8524 O   0  0  0  0  0  0  0  0  0  0  0  0
    4.4064    0.5766   -1.9663 C   0  0  0  0  0  0  0  0  0  0  0  0
    4.5105   -0.7671   -1.2225 C   0  0  0  0  0  0  0  0  0  0  0  0
    4.6883   -0.6178    0.1983 O   0  0  0  0  0  0  0  0  0  0  0  0
    5.9472   -0.8886    0.6237 C   0  0  0  0  0  0  0  0  0  0  0  0
    6.8732   -1.3004   -0.0547 O   0  0  0  0  0  0  0  0  0  0  0  0
    6.1448   -0.4897    2.0328 C   0  0  0  0  0  0  0  0  0  0  0  0
    7.3403    0.1764    2.3236 C   0  0  0  0  0  0  0  0  0  0  0  0
    7.7071    0.4122    3.6446 C   0  0  0  0  0  0  0  0  0  0  0  0
    6.8838   -0.0165    4.6950 C   0  0  0  0  0  0  0  0  0  0  0  0
    7.4333    0.0344    6.0762 C   0  0  0  0  0  0  0  0  0  0  0  0
    7.9777   -1.2216    6.7054 C   0  0  0  0  0  0  0  0  0  0  0  0
    8.6369   -1.3697    7.8277 N   0  0  0  0  0  0  0  0  0  0  0  0
    8.9170   -2.7273    7.9273 C   0  0  0  0  0  0  0  0  0  0  0  0
    9.6263   -3.3827    8.8779 C   0  0  0  0  0  0  0  0  0  0  0  0
    9.7777   -4.8684    8.7224 C   0  0  0  0  0  0  0  0  0  0  0  0
   10.6027   -5.4285    7.7380 C   0  0  0  0  0  0  0  0  0  0  0  0
   11.2563   -4.6414    6.8700 F   0  0  0  0  0  0  0  0  0  0  0  0
   10.7431   -6.8112    7.6032 C   0  0  0  0  0  0  0  0  0  0  0  0
   10.0784   -7.6669    8.4795 C   0  0  0  0  0  0  0  0  0  0  0  0
    9.2668   -7.1319    9.4779 C   0  0  0  0  0  0  0  0  0  0  0  0
    9.1144   -5.7486    9.5864 C   0  0  0  0  0  0  0  0  0  0  0  0
    8.3139   -5.2787   10.5549 F   0  0  0  0  0  0  0  0  0  0  0  0
   10.2279   -2.7540   10.0250 C   0  0  0  0  0  0  0  0  0  0  0  0
   10.9769   -3.3354   11.0341 C   0  0  0  0  0  0  0  0  0  0  0  0
   11.3075   -2.3425   11.9629 C   0  0  0  0  0  0  0  0  0  0  0  0
   10.8085   -1.1339   11.5056 C   0  0  0  0  0  0  0  0  0  0  0  0
   10.1440   -1.4020   10.3193 N   0  0  0  0  0  0  0  0  0  0  0  0
   10.9271    0.1713   12.1036 C   0  0  0  0  0  0  0  0  0  0  0  0
   11.7148    0.2969   13.3764 C   0  0  0  0  0  0  0  0  0  0  0  0
   11.1005    0.5654   14.6064 C   0  0  0  0  0  0  0  0  0  0  0  0
    9.7740    0.7537   14.6772 F   0  0  0  0  0  0  0  0  0  0  0  0
   11.8436    0.6866   15.7825 C   0  0  0  0  0  0  0  0  0  0  0  0
   13.2252    0.5055   15.7553 C   0  0  0  0  0  0  0  0  0  0  0  0
   13.8553    0.2143   14.5475 C   0  0  0  0  0  0  0  0  0  0  0  0
   13.1051    0.1230   13.3740 C   0  0  0  0  0  0  0  0  0  0  0  0
   13.7564   -0.1470   12.2326 F   0  0  0  0  0  0  0  0  0  0  0  0
   10.3983    1.3071   11.5851 C   0  0  0  0  0  0  0  0  0  0  0  0
    9.6650    1.4764   10.4164 N   0  0  0  0  0  0  0  0  0  0  0  0
    9.3708    2.7525   10.3579 C   0  0  0  0  0  0  0  0  0  0  0  0
    8.6292    3.5106    9.2893 C   0  0  0  0  0  0  0  0  0  0  0  0
    8.4465    4.9802    9.4013 C   0  0  0  0  0  0  0  0  0  0  0  0
    9.5303    5.8602    9.3011 C   0  0  0  0  0  0  0  0  0  0  0  0
   10.7682    5.3864    9.0966 F   0  0  0  0  0  0  0  0  0  0  0  0
    9.3692    7.2385    9.4541 C   0  0  0  0  0  0  0  0  0  0  0  0
    8.1012    7.7689    9.6848 C   0  0  0  0  0  0  0  0  0  0  0  0
    7.0044    6.9139    9.7699 C   0  0  0  0  0  0  0  0  0  0  0  0
    7.1841    5.5363    9.6405 C   0  0  0  0  0  0  0  0  0  0  0  0
    6.1056    4.7463    9.7471 F   0  0  0  0  0  0  0  0  0  0  0  0
    8.1402    2.8505    8.2216 C   0  0  0  0  0  0  0  0  0  0  0  0
    7.4526    3.4620    7.0858 C   0  0  0  0  0  0  0  0  0  0  0  0
    7.1098    2.5034    6.2083 C   0  0  0  0  0  0  0  0  0  0  0  0
    7.5685    1.2112    6.7150 C   0  0  0  0  0  0  0  0  0  0  0  0
    8.1573    1.5109    7.9188 N   0  0  0  0  0  0  0  0  0  0  0  0
    9.8611    3.5332   11.5036 C   0  0  0  0  0  0  0  0  0  0  0  0
   10.5173    2.6139   12.1969 C   0  0  0  0  0  0  0  0  0  0  0  0
    8.3166   -3.3664    6.7762 C   0  0  0  0  0  0  0  0  0  0  0  0
    7.7567   -2.4763    5.9702 C   0  0  0  0  0  0  0  0  0  0  0  0
    5.6404   -0.6035    4.3968 C   0  0  0  0  0  0  0  0  0  0  0  0
    5.2714   -0.8499    3.0636 C   0  0  0  0  0  0  0  0  0  0  0  0
    1.3057   -1.9189    1.4843 H   0  0  0  0  0  0  0  0  0  0  0  0
    0.5112   -0.7908    2.5563 H   0  0  0  0  0  0  0  0  0  0  0  0
    1.6954   -0.2174    1.4064 H   0  0  0  0  0  0  0  0  0  0  0  0
    0.8835   -1.9909   -0.8301 H   0  0  0  0  0  0  0  0  0  0  0  0
    1.1041   -0.2832   -1.1270 H   0  0  0  0  0  0  0  0  0  0  0  0
   -0.3894   -1.0643   -1.5878 H   0  0  0  0  0  0  0  0  0  0  0  0
   -1.5577   -1.7074    1.8913 H   0  0  0  0  0  0  0  0  0  0  0  0
   -1.1146   -2.7008    0.5697 H   0  0  0  0  0  0  0  0  0  0  0  0
   -3.4494   -1.4899    0.4829 H   0  0  0  0  0  0  0  0  0  0  0  0
   -2.5221   -1.4532   -0.9569 H   0  0  0  0  0  0  0  0  0  0  0  0
   -3.0111    0.7097    1.0282 H   0  0  0  0  0  0  0  0  0  0  0  0
   -2.7435    0.8670   -0.6737 H   0  0  0  0  0  0  0  0  0  0  0  0
   -0.4536    1.2838   -0.2630 H   0  0  0  0  0  0  0  0  0  0  0  0
   -0.9903    0.9234    2.5076 H   0  0  0  0  0  0  0  0  0  0  0  0
    0.0399    4.5243    1.8206 H   0  0  0  0  0  0  0  0  0  0  0  0
    0.7784    5.0001    0.0443 H   0  0  0  0  0  0  0  0  0  0  0  0
   -0.7055    4.7787   -1.7035 H   0  0  0  0  0  0  0  0  0  0  0  0
   -1.5824    3.6785   -0.6877 H   0  0  0  0  0  0  0  0  0  0  0  0
    1.6225    3.0460   -2.7484 H   0  0  0  0  0  0  0  0  0  0  0  0
    1.3357    1.5300   -1.9280 H   0  0  0  0  0  0  0  0  0  0  0  0
    1.2890    1.5389    0.7003 H   0  0  0  0  0  0  0  0  0  0  0  0
    2.5078    2.6496    1.2782 H   0  0  0  0  0  0  0  0  0  0  0  0
    2.8813    1.5405   -0.0193 H   0  0  0  0  0  0  0  0  0  0  0  0
    5.9237    4.2830   -0.1940 H   0  0  0  0  0  0  0  0  0  0  0  0
    5.2247    3.9769   -1.7560 H   0  0  0  0  0  0  0  0  0  0  0  0
    5.0683    1.7149    0.1209 H   0  0  0  0  0  0  0  0  0  0  0  0
    6.7075    2.1840   -0.3834 H   0  0  0  0  0  0  0  0  0  0  0  0
    4.2687    0.3617   -3.0054 H   0  0  0  0  0  0  0  0  0  0  0  0
    3.5904    1.0908   -1.5030 H   0  0  0  0  0  0  0  0  0  0  0  0
    5.3459   -1.3087   -1.6145 H   0  0  0  0  0  0  0  0  0  0  0  0
    3.5872   -1.2862   -1.3741 H   0  0  0  0  0  0  0  0  0  0  0  0
    7.9521    0.4939    1.5555 H   0  0  0  0  0  0  0  0  0  0  0  0
    8.5896    0.9052    3.8523 H   0  0  0  0  0  0  0  0  0  0  0  0
   11.3388   -7.1992    6.8551 H   0  0  0  0  0  0  0  0  0  0  0  0
   10.1864   -8.6893    8.3897 H   0  0  0  0  0  0  0  0  0  0  0  0
    8.7785   -7.7582   10.1369 H   0  0  0  0  0  0  0  0  0  0  0  0
   11.2452   -4.3303   11.0913 H   0  0  0  0  0  0  0  0  0  0  0  0
   11.8334   -2.4861   12.8392 H   0  0  0  0  0  0  0  0  0  0  0  0
    9.6808   -0.7313    9.7672 H   0  0  0  0  0  0  0  0  0  0  0  0
   11.3698    0.9102   16.6716 H   0  0  0  0  0  0  0  0  0  0  0  0
   13.7773    0.5865   16.6234 H   0  0  0  0  0  0  0  0  0  0  0  0
   14.8763    0.0662   14.5204 H   0  0  0  0  0  0  0  0  0  0  0  0
   10.1881    7.8639    9.3964 H   0  0  0  0  0  0  0  0  0  0  0  0
    7.9756    8.7876    9.7918 H   0  0  0  0  0  0  0  0  0  0  0  0
    6.0602    7.2991    9.9285 H   0  0  0  0  0  0  0  0  0  0  0  0
    7.2608    4.4700    6.9752 H   0  0  0  0  0  0  0  0  0  0  0  0
    6.6049    2.6550    5.3211 H   0  0  0  0  0  0  0  0  0  0  0  0
    8.5541    0.8301    8.5089 H   0  0  0  0  0  0  0  0  0  0  0  0
    9.7288    4.5350   11.7130 H   0  0  0  0  0  0  0  0  0  0  0  0
   11.0457    2.8051   13.0625 H   0  0  0  0  0  0  0  0  0  0  0  0
    8.3236   -4.3841    6.6052 H   0  0  0  0  0  0  0  0  0  0  0  0
    7.2877   -2.6246    5.0630 H   0  0  0  0  0  0  0  0  0  0  0  0
    4.9953   -0.8547    5.1621 H   0  0  0  0  0  0  0  0  0  0  0  0
    4.3645   -1.2924    2.8473 H   0  0  0  0  0  0  0  0  0  0  0  0
  1  2  1  0  0  0  0
  1 83  1  0  0  0  0
  1 84  1  0  0  0  0
  1 85  1  0  0  0  0
  2  3  1  0  0  0  0
  2  4  1  0  0  0  0
  2  7  1  0  0  0  0
  3 86  1  0  0  0  0
  3 87  1  0  0  0  0
  3 88  1  0  0  0  0
  4  5  1  0  0  0  0
  4 89  1  0  0  0  0
  4 90  1  0  0  0  0
  5  6  1  0  0  0  0
  5 91  1  0  0  0  0
  5 92  1  0  0  0  0
  6  7  1  0  0  0  0
  6 93  1  0  0  0  0
  6 94  1  0  0  0  0
  7  8  1  0  0  0  0
  7 95  1  6  0  0  0
  8  9  1  0  0  0  0
  8 96  1  0  0  0  0
  9 10  2  0  0  0  0
  9 11  1  0  0  0  0
 11 12  1  0  0  0  0
 11 97  1  0  0  0  0
 12 13  1  0  0  0  0
 12 16  1  0  0  0  0
 12 98  1  6  0  0  0
 13 14  1  0  0  0  0
 13 99  1  0  0  0  0
 13100  1  0  0  0  0
 14 15  1  0  0  0  0
 15 16  1  0  0  0  0
 15101  1  0  0  0  0
 15102  1  0  0  0  0
 16 18  1  6  0  0  0
 16 17  1  0  0  0  0
 17103  1  0  0  0  0
 17104  1  0  0  0  0
 17105  1  0  0  0  0
 18 19  2  0  0  0  0
 18 20  1  0  0  0  0
 20 21  1  0  0  0  0
 21 22  1  0  0  0  0
 21106  1  0  0  0  0
 21107  1  0  0  0  0
 22 23  1  0  0  0  0
 22108  1  0  0  0  0
 22109  1  0  0  0  0
 23 24  1  0  0  0  0
 24 25  1  0  0  0  0
 24110  1  0  0  0  0
 24111  1  0  0  0  0
 25 26  1  0  0  0  0
 25112  1  0  0  0  0
 25113  1  0  0  0  0
 26 27  1  0  0  0  0
 27 28  2  0  0  0  0
 27 29  1  0  0  0  0
 29 30  1  0  0  0  0
 29 82  2  0  0  0  0
 30 31  2  0  0  0  0
 30114  1  0  0  0  0
 31 32  1  0  0  0  0
 31115  1  0  0  0  0
 32 33  1  0  0  0  0
 32 81  2  0  0  0  0
 33 34  1  0  0  0  0
 33 75  2  0  0  0  0
 34 35  2  0  0  0  0
 34 80  1  0  0  0  0
 35 36  1  0  0  0  0
 36 37  2  0  0  0  0
 36 79  1  0  0  0  0
 37 38  1  0  0  0  0
 37 46  1  0  0  0  0
 38 39  1  0  0  0  0
 38 44  2  0  0  0  0
 39 40  1  0  0  0  0
 39 41  2  0  0  0  0
 41 42  1  0  0  0  0
 41116  1  0  0  0  0
 42 43  2  0  0  0  0
 42117  1  0  0  0  0
 43 44  1  0  0  0  0
 43118  1  0  0  0  0
 44 45  1  0  0  0  0
 46 47  2  0  0  0  0
 46 50  1  0  0  0  0
 47 48  1  0  0  0  0
 47119  1  0  0  0  0
 48 49  2  0  0  0  0
 48120  1  0  0  0  0
 49 50  1  0  0  0  0
 49 51  1  0  0  0  0
 50121  1  0  0  0  0
 51 52  1  0  0  0  0
 51 60  2  0  0  0  0
 52 53  1  0  0  0  0
 52 58  2  0  0  0  0
 53 54  1  0  0  0  0
 53 55  2  0  0  0  0
 55 56  1  0  0  0  0
 55122  1  0  0  0  0
 56 57  2  0  0  0  0
 56123  1  0  0  0  0
 57 58  1  0  0  0  0
 57124  1  0  0  0  0
 58 59  1  0  0  0  0
 60 61  1  0  0  0  0
 60 78  1  0  0  0  0
 61 62  2  0  0  0  0
 62 63  1  0  0  0  0
 62 77  1  0  0  0  0
 63 64  1  0  0  0  0
 63 72  2  0  0  0  0
 64 65  1  0  0  0  0
 64 70  2  0  0  0  0
 65 66  1  0  0  0  0
 65 67  2  0  0  0  0
 67 68  1  0  0  0  0
 67125  1  0  0  0  0
 68 69  2  0  0  0  0
 68126  1  0  0  0  0
 69 70  1  0  0  0  0
 69127  1  0  0  0  0
 70 71  1  0  0  0  0
 72 73  1  0  0  0  0
 72 76  1  0  0  0  0
 73 74  2  0  0  0  0
 73128  1  0  0  0  0
 74 75  1  0  0  0  0
 74129  1  0  0  0  0
 75 76  1  0  0  0  0
 76130  1  0  0  0  0
 77 78  2  0  0  0  0
 77131  1  0  0  0  0
 78132  1  0  0  0  0
 79 80  2  0  0  0  0
 79133  1  0  0  0  0
 80134  1  0  0  0  0
 81 82  1  0  0  0  0
 81135  1  0  0  0  0
 82136  1  0  0  0  0
M  END
$$$$
