1_4_9394
 OpenBabel04152301373D

147158  0  0  1  0  0  0  0  0999 V2000
    6.2305   -0.8277    1.4749 C   0  0  0  0  0  0  0  0  0  0  0  0
    6.0660    0.5553    2.1090 C   0  0  0  0  0  0  0  0  0  0  0  0
    4.7145    0.7289    2.5475 O   0  0  0  0  0  0  0  0  0  0  0  0
    4.0652    1.8623    2.1374 C   0  0  0  0  0  0  0  0  0  0  0  0
    4.4367    3.0962    2.6741 C   0  0  0  0  0  0  0  0  0  0  0  0
    3.7370    4.2519    2.3199 C   0  0  0  0  0  0  0  0  0  0  0  0
    2.6579    4.1774    1.4410 C   0  0  0  0  0  0  0  0  0  0  0  0
    2.2568    2.9418    0.9331 C   0  0  0  0  0  0  0  0  0  0  0  0
    2.9398    1.7601    1.2857 C   0  0  0  0  0  0  0  0  0  0  0  0
    2.5198    0.4449    0.5950 C   0  0  2  0  0  0  0  0  0  0  0  0
    2.8457   -0.8054    1.4664 C   0  0  0  0  0  0  0  0  0  0  0  0
    3.4685   -1.7960    1.1084 O   0  0  0  0  0  0  0  0  0  0  0  0
    2.3678   -0.6628    2.7451 O   0  0  0  0  0  0  0  0  0  0  0  0
    3.0680   -1.4562    3.7183 C   0  0  0  0  0  0  0  0  0  0  0  0
    2.5889   -2.8967    3.8996 C   0  0  0  0  0  0  0  0  0  0  0  0
    2.1359   -3.5251    2.7272 O   0  0  0  0  0  0  0  0  0  0  0  0
    0.8015   -3.3571    2.2764 C   0  0  0  0  0  0  0  0  0  0  0  0
   -0.1936   -2.2616    2.7288 C   0  0  0  0  0  0  0  0  0  0  0  0
    0.0797   -1.5133    3.9153 O   0  0  0  0  0  0  0  0  0  0  0  0
   -0.2933   -2.0677    5.0878 C   0  0  0  0  0  0  0  0  0  0  0  0
   -0.8107   -3.1516    5.2609 O   0  0  0  0  0  0  0  0  0  0  0  0
    0.2089   -1.1957    6.1707 C   0  0  0  0  0  0  0  0  0  0  0  0
    1.1651   -1.7081    7.0562 C   0  0  0  0  0  0  0  0  0  0  0  0
    1.5825   -0.9483    8.1457 C   0  0  0  0  0  0  0  0  0  0  0  0
    1.0097    0.3085    8.3762 C   0  0  0  0  0  0  0  0  0  0  0  0
    1.1886    0.9473    9.7002 C   0  0  0  0  0  0  0  0  0  0  0  0
    0.1167    0.7450   10.7362 C   0  0  0  0  0  0  0  0  0  0  0  0
    0.0317    1.2217   11.9509 N   0  0  0  0  0  0  0  0  0  0  0  0
   -1.1597    0.7256   12.4662 C   0  0  0  0  0  0  0  0  0  0  0  0
   -1.6855    0.9052   13.7007 C   0  0  0  0  0  0  0  0  0  0  0  0
   -3.0123    0.2636   13.9880 C   0  0  0  0  0  0  0  0  0  0  0  0
   -3.1571   -1.1244   14.1151 C   0  0  0  0  0  0  0  0  0  0  0  0
   -2.1030   -1.9369   13.9445 F   0  0  0  0  0  0  0  0  0  0  0  0
   -4.3979   -1.7084   14.3785 C   0  0  0  0  0  0  0  0  0  0  0  0
   -5.5221   -0.9044   14.5564 C   0  0  0  0  0  0  0  0  0  0  0  0
   -5.3988    0.4795   14.4542 C   0  0  0  0  0  0  0  0  0  0  0  0
   -4.1591    1.0494   14.1610 C   0  0  0  0  0  0  0  0  0  0  0  0
   -4.0922    2.3851   14.0547 F   0  0  0  0  0  0  0  0  0  0  0  0
   -1.0663    1.6974   14.7299 C   0  0  0  0  0  0  0  0  0  0  0  0
   -1.5113    1.9388   16.0172 C   0  0  0  0  0  0  0  0  0  0  0  0
   -0.6168    2.8231   16.6283 C   0  0  0  0  0  0  0  0  0  0  0  0
    0.4207    3.0789   15.7455 C   0  0  0  0  0  0  0  0  0  0  0  0
    0.1283    2.3868   14.5823 N   0  0  0  0  0  0  0  0  0  0  0  0
    1.5910    3.8959   15.9482 C   0  0  0  0  0  0  0  0  0  0  0  0
    1.7557    4.5597   17.2863 C   0  0  0  0  0  0  0  0  0  0  0  0
    1.6413    5.9460   17.4495 C   0  0  0  0  0  0  0  0  0  0  0  0
    1.4261    6.7404   16.3899 F   0  0  0  0  0  0  0  0  0  0  0  0
    1.7842    6.5474   18.7015 C   0  0  0  0  0  0  0  0  0  0  0  0
    2.0085    5.7617   19.8306 C   0  0  0  0  0  0  0  0  0  0  0  0
    2.1038    4.3786   19.6963 C   0  0  0  0  0  0  0  0  0  0  0  0
    1.9915    3.7922   18.4352 C   0  0  0  0  0  0  0  0  0  0  0  0
    2.0994    2.4574   18.3532 F   0  0  0  0  0  0  0  0  0  0  0  0
    2.5732    4.0864   15.0323 C   0  0  0  0  0  0  0  0  0  0  0  0
    2.6915    3.5628   13.7499 N   0  0  0  0  0  0  0  0  0  0  0  0
    3.8084    4.0487   13.2625 C   0  0  0  0  0  0  0  0  0  0  0  0
    4.4565    3.7923   11.9260 C   0  0  0  0  0  0  0  0  0  0  0  0
    5.7438    4.4437   11.5710 C   0  0  0  0  0  0  0  0  0  0  0  0
    6.9313    4.1223   12.2383 C   0  0  0  0  0  0  0  0  0  0  0  0
    6.9279    3.2084   13.2199 F   0  0  0  0  0  0  0  0  0  0  0  0
    8.1347    4.7657   11.9424 C   0  0  0  0  0  0  0  0  0  0  0  0
    8.1785    5.7323   10.9395 C   0  0  0  0  0  0  0  0  0  0  0  0
    7.0137    6.0554   10.2471 C   0  0  0  0  0  0  0  0  0  0  0  0
    5.8122    5.4246   10.5734 C   0  0  0  0  0  0  0  0  0  0  0  0
    4.7111    5.7797    9.8950 F   0  0  0  0  0  0  0  0  0  0  0  0
    3.8455    2.9768   11.0450 C   0  0  0  0  0  0  0  0  0  0  0  0
    4.3402    2.6251    9.7149 C   0  0  0  0  0  0  0  0  0  0  0  0
    3.4242    1.8643    9.0902 C   0  0  0  0  0  0  0  0  0  0  0  0
    2.2958    1.6494    9.9930 C   0  0  0  0  0  0  0  0  0  0  0  0
    2.6463    2.3156   11.1397 N   0  0  0  0  0  0  0  0  0  0  0  0
    4.5089    4.9653   14.1733 C   0  0  0  0  0  0  0  0  0  0  0  0
    3.7391    4.9170   15.2511 C   0  0  0  0  0  0  0  0  0  0  0  0
   -1.7798   -0.0622   11.4244 C   0  0  0  0  0  0  0  0  0  0  0  0
   -1.0134   -0.1151   10.3463 C   0  0  0  0  0  0  0  0  0  0  0  0
    0.1033    0.8475    7.4458 C   0  0  0  0  0  0  0  0  0  0  0  0
   -0.2961    0.0959    6.3376 C   0  0  0  0  0  0  0  0  0  0  0  0
    3.0020    0.4022   -0.8531 N   0  3  1  0  0  0  0  0  0  0  0  0
    4.3019    1.0455   -1.0387 C   0  0  0  0  0  0  0  0  0  0  0  0
    5.0031    0.8677   -2.3723 C   0  0  0  0  0  0  0  0  0  0  0  0
    4.9468   -0.5795   -2.8618 C   0  0  2  0  0  0  0  0  0  0  0  0
    5.6730   -0.8209   -4.1396 N   0  3  0  0  0  0  0  0  0  0  0  0
    7.1361   -0.6725   -3.9464 C   0  0  0  0  0  0  0  0  0  0  0  0
    8.0043   -0.9833   -5.1731 C   0  0  0  0  0  0  0  0  0  0  0  0
    7.6073    0.0893   -6.5833 S   0  0  0  0  0  0  0  0  0  0  0  0
    5.8252   -0.2520   -6.6072 C   0  0  0  0  0  0  0  0  0  0  0  0
    5.1772    0.0201   -5.2467 C   0  0  0  0  0  0  0  0  0  0  0  0
    3.4610   -0.9772   -2.9187 C   0  0  0  0  0  0  0  0  0  0  0  0
    2.8454   -0.8976   -1.5165 C   0  0  0  0  0  0  0  0  0  0  0  0
    7.2419   -0.9526    1.1489 H   0  0  0  0  0  0  0  0  0  0  0  0
    5.5719   -0.9162    0.6362 H   0  0  0  0  0  0  0  0  0  0  0  0
    5.9926   -1.5814    2.1962 H   0  0  0  0  0  0  0  0  0  0  0  0
    6.3049    1.3080    1.3870 H   0  0  0  0  0  0  0  0  0  0  0  0
    6.7239    0.6400    2.9486 H   0  0  0  0  0  0  0  0  0  0  0  0
    5.2288    3.1545    3.3330 H   0  0  0  0  0  0  0  0  0  0  0  0
    4.0200    5.1643    2.7104 H   0  0  0  0  0  0  0  0  0  0  0  0
    2.1558    5.0361    1.1661 H   0  0  0  0  0  0  0  0  0  0  0  0
    1.4502    2.8921    0.2913 H   0  0  0  0  0  0  0  0  0  0  0  0
    1.4530    0.4158    0.5172 H   0  0  0  0  0  0  0  0  0  0  0  0
    2.9792   -0.9631    4.6638 H   0  0  0  0  0  0  0  0  0  0  0  0
    4.0693   -1.5361    3.3496 H   0  0  0  0  0  0  0  0  0  0  0  0
    1.7848   -2.8925    4.6056 H   0  0  0  0  0  0  0  0  0  0  0  0
    3.4404   -3.4554    4.2278 H   0  0  0  0  0  0  0  0  0  0  0  0
    0.3145   -4.2836    2.4987 H   0  0  0  0  0  0  0  0  0  0  0  0
    0.9934   -3.0201    1.2792 H   0  0  0  0  0  0  0  0  0  0  0  0
   -1.1398   -2.7400    2.8729 H   0  0  0  0  0  0  0  0  0  0  0  0
   -0.1356   -1.5303    1.9499 H   0  0  0  0  0  0  0  0  0  0  0  0
    1.5603   -2.6487    6.9012 H   0  0  0  0  0  0  0  0  0  0  0  0
    2.3111   -1.3099    8.7808 H   0  0  0  0  0  0  0  0  0  0  0  0
   -4.4823   -2.7350   14.4414 H   0  0  0  0  0  0  0  0  0  0  0  0
   -6.4390   -1.3309   14.7623 H   0  0  0  0  0  0  0  0  0  0  0  0
   -6.2239    1.0830   14.5953 H   0  0  0  0  0  0  0  0  0  0  0  0
   -2.3566    1.5362   16.4512 H   0  0  0  0  0  0  0  0  0  0  0  0
   -0.7129    3.2186   17.5767 H   0  0  0  0  0  0  0  0  0  0  0  0
    0.6857    2.3844   13.7708 H   0  0  0  0  0  0  0  0  0  0  0  0
    1.7237    7.5737   18.7908 H   0  0  0  0  0  0  0  0  0  0  0  0
    2.1033    6.2015   20.7594 H   0  0  0  0  0  0  0  0  0  0  0  0
    2.2573    3.7882   20.5287 H   0  0  0  0  0  0  0  0  0  0  0  0
    8.9910    4.5256   12.4660 H   0  0  0  0  0  0  0  0  0  0  0  0
    9.0670    6.2051   10.7115 H   0  0  0  0  0  0  0  0  0  0  0  0
    7.0392    6.7603    9.4938 H   0  0  0  0  0  0  0  0  0  0  0  0
    5.2480    2.9147    9.3185 H   0  0  0  0  0  0  0  0  0  0  0  0
    3.5050    1.4932    8.1306 H   0  0  0  0  0  0  0  0  0  0  0  0
    2.0910    2.3192   11.9527 H   0  0  0  0  0  0  0  0  0  0  0  0
    5.3740    5.5053   14.0150 H   0  0  0  0  0  0  0  0  0  0  0  0
    3.9446    5.4091   16.1346 H   0  0  0  0  0  0  0  0  0  0  0  0
   -2.6993   -0.5229   11.5100 H   0  0  0  0  0  0  0  0  0  0  0  0
   -1.1676   -0.6259    9.4629 H   0  0  0  0  0  0  0  0  0  0  0  0
   -0.2679    1.8008    7.5819 H   0  0  0  0  0  0  0  0  0  0  0  0
   -0.9568    0.4907    5.6501 H   0  0  0  0  0  0  0  0  0  0  0  0
    2.3475    0.9882   -1.3714 H   0  0  0  0  0  0  0  0  0  0  0  0
    4.9559    0.6643   -0.2825 H   0  0  0  0  0  0  0  0  0  0  0  0
    4.0904    2.0931   -0.9867 H   0  0  0  0  0  0  0  0  0  0  0  0
    6.0279    1.1561   -2.2647 H   0  0  0  0  0  0  0  0  0  0  0  0
    4.5018    1.4795   -3.0929 H   0  0  0  0  0  0  0  0  0  0  0  0
    5.4738   -1.2084   -2.1750 H   0  0  0  0  0  0  0  0  0  0  0  0
    5.4842   -1.7846   -4.4155 H   0  0  0  0  0  0  0  0  0  0  0  0
    7.4323   -1.3328   -3.1582 H   0  0  0  0  0  0  0  0  0  0  0  0
    7.2981    0.3626   -3.7292 H   0  0  0  0  0  0  0  0  0  0  0  0
    7.8447   -2.0019   -5.4592 H   0  0  0  0  0  0  0  0  0  0  0  0
    9.0256   -0.8097   -4.9054 H   0  0  0  0  0  0  0  0  0  0  0  0
    5.6725   -1.2793   -6.8646 H   0  0  0  0  0  0  0  0  0  0  0  0
    5.3715    0.3959   -7.3279 H   0  0  0  0  0  0  0  0  0  0  0  0
    5.3572    1.0437   -4.9922 H   0  0  0  0  0  0  0  0  0  0  0  0
    4.1391   -0.2141   -5.3580 H   0  0  0  0  0  0  0  0  0  0  0  0
    3.3755   -1.9780   -3.2874 H   0  0  0  0  0  0  0  0  0  0  0  0
    2.9414   -0.3061   -3.5702 H   0  0  0  0  0  0  0  0  0  0  0  0
    1.7992   -1.1062   -1.5990 H   0  0  0  0  0  0  0  0  0  0  0  0
    3.3694   -1.6103   -0.9145 H   0  0  0  0  0  0  0  0  0  0  0  0
  1  2  1  0  0  0  0
  1 88  1  0  0  0  0
  1 89  1  0  0  0  0
  1 90  1  0  0  0  0
  2  3  1  0  0  0  0
  2 91  1  0  0  0  0
  2 92  1  0  0  0  0
  3  4  1  0  0  0  0
  4  5  1  0  0  0  0
  4  9  2  0  0  0  0
  5  6  2  0  0  0  0
  5 93  1  0  0  0  0
  6  7  1  0  0  0  0
  6 94  1  0  0  0  0
  7  8  2  0  0  0  0
  7 95  1  0  0  0  0
  8  9  1  0  0  0  0
  8 96  1  0  0  0  0
 10 76  1  0  0  0  0
 10 11  1  0  0  0  0
 10  9  1  0  0  0  0
 10 97  1  6  0  0  0
 11 12  2  0  0  0  0
 11 13  1  0  0  0  0
 13 14  1  0  0  0  0
 14 15  1  0  0  0  0
 14 98  1  0  0  0  0
 14 99  1  0  0  0  0
 15 16  1  0  0  0  0
 15100  1  0  0  0  0
 15101  1  0  0  0  0
 16 17  1  0  0  0  0
 17 18  1  0  0  0  0
 17102  1  0  0  0  0
 17103  1  0  0  0  0
 18 19  1  0  0  0  0
 18104  1  0  0  0  0
 18105  1  0  0  0  0
 19 20  1  0  0  0  0
 20 21  2  0  0  0  0
 20 22  1  0  0  0  0
 22 23  1  0  0  0  0
 22 75  2  0  0  0  0
 23 24  2  0  0  0  0
 23106  1  0  0  0  0
 24 25  1  0  0  0  0
 24107  1  0  0  0  0
 25 26  1  0  0  0  0
 25 74  2  0  0  0  0
 26 27  1  0  0  0  0
 26 68  2  0  0  0  0
 27 28  2  0  0  0  0
 27 73  1  0  0  0  0
 28 29  1  0  0  0  0
 29 30  2  0  0  0  0
 29 72  1  0  0  0  0
 30 31  1  0  0  0  0
 30 39  1  0  0  0  0
 31 32  1  0  0  0  0
 31 37  2  0  0  0  0
 32 33  1  0  0  0  0
 32 34  2  0  0  0  0
 34 35  1  0  0  0  0
 34108  1  0  0  0  0
 35 36  2  0  0  0  0
 35109  1  0  0  0  0
 36 37  1  0  0  0  0
 36110  1  0  0  0  0
 37 38  1  0  0  0  0
 39 40  2  0  0  0  0
 39 43  1  0  0  0  0
 40 41  1  0  0  0  0
 40111  1  0  0  0  0
 41 42  2  0  0  0  0
 41112  1  0  0  0  0
 42 43  1  0  0  0  0
 42 44  1  0  0  0  0
 43113  1  0  0  0  0
 44 45  1  0  0  0  0
 44 53  2  0  0  0  0
 45 46  1  0  0  0  0
 45 51  2  0  0  0  0
 46 47  1  0  0  0  0
 46 48  2  0  0  0  0
 48 49  1  0  0  0  0
 48114  1  0  0  0  0
 49 50  2  0  0  0  0
 49115  1  0  0  0  0
 50 51  1  0  0  0  0
 50116  1  0  0  0  0
 51 52  1  0  0  0  0
 53 54  1  0  0  0  0
 53 71  1  0  0  0  0
 54 55  2  0  0  0  0
 55 56  1  0  0  0  0
 55 70  1  0  0  0  0
 56 57  1  0  0  0  0
 56 65  2  0  0  0  0
 57 58  1  0  0  0  0
 57 63  2  0  0  0  0
 58 59  1  0  0  0  0
 58 60  2  0  0  0  0
 60 61  1  0  0  0  0
 60117  1  0  0  0  0
 61 62  2  0  0  0  0
 61118  1  0  0  0  0
 62 63  1  0  0  0  0
 62119  1  0  0  0  0
 63 64  1  0  0  0  0
 65 66  1  0  0  0  0
 65 69  1  0  0  0  0
 66 67  2  0  0  0  0
 66120  1  0  0  0  0
 67 68  1  0  0  0  0
 67121  1  0  0  0  0
 68 69  1  0  0  0  0
 69122  1  0  0  0  0
 70 71  2  0  0  0  0
 70123  1  0  0  0  0
 71124  1  0  0  0  0
 72 73  2  0  0  0  0
 72125  1  0  0  0  0
 73126  1  0  0  0  0
 74 75  1  0  0  0  0
 74127  1  0  0  0  0
 75128  1  0  0  0  0
 76 77  1  0  0  0  0
 76 87  1  0  0  0  0
 76129  1  6  0  0  0
 77 78  1  0  0  0  0
 77130  1  0  0  0  0
 77131  1  0  0  0  0
 78 79  1  0  0  0  0
 78132  1  0  0  0  0
 78133  1  0  0  0  0
 79 80  1  0  0  0  0
 79 86  1  0  0  0  0
 79134  1  1  0  0  0
 80 81  1  0  0  0  0
 80 85  1  0  0  0  0
 80135  1  0  0  0  0
 81 82  1  0  0  0  0
 81136  1  0  0  0  0
 81137  1  0  0  0  0
 82 83  1  0  0  0  0
 82138  1  0  0  0  0
 82139  1  0  0  0  0
 83 84  1  0  0  0  0
 84 85  1  0  0  0  0
 84140  1  0  0  0  0
 84141  1  0  0  0  0
 85142  1  0  0  0  0
 85143  1  0  0  0  0
 86 87  1  0  0  0  0
 86144  1  0  0  0  0
 86145  1  0  0  0  0
 87146  1  0  0  0  0
 87147  1  0  0  0  0
M  CHG  2  76   1  80   1
M  END
$$$$
