1_4_8916
 OpenBabel04152301353D

127138  0  0  0  0  0  0  0  0999 V2000
    0.5624   -0.2797   -0.0523 O   0  0  0  0  0  0  0  0  0  0  0  0
    1.7433    0.0565   -0.1458 C   0  0  0  0  0  0  0  0  0  0  0  0
    2.2310    0.8654   -1.3373 C   0  0  0  0  0  0  0  0  0  0  0  0
    3.2651    1.7841   -1.0601 O   0  0  0  0  0  0  0  0  0  0  0  0
    2.8666    3.0885   -1.0316 C   0  0  0  0  0  0  0  0  0  0  0  0
    3.3786    3.8594   -2.0840 C   0  0  0  0  0  0  0  0  0  0  0  0
    3.1698    5.2315   -2.1135 C   0  0  0  0  0  0  0  0  0  0  0  0
    2.5086    5.8403   -1.0550 C   0  0  0  0  0  0  0  0  0  0  0  0
    2.0254    5.0718    0.0092 C   0  0  0  0  0  0  0  0  0  0  0  0
    2.1335    3.6721    0.0178 C   0  0  0  0  0  0  0  0  0  0  0  0
    1.5207    2.9131    1.1370 C   0  0  0  0  0  0  0  0  0  0  0  0
    0.2469    3.0288    1.5675 C   0  0  0  0  0  0  0  0  0  0  0  0
   -0.8077    3.9604    0.9952 C   0  0  0  0  0  0  0  0  0  0  0  0
   -0.7808    4.6267   -0.0151 O   0  0  0  0  0  0  0  0  0  0  0  0
   -1.8659    3.8987    1.8826 N   0  0  0  0  0  0  0  0  0  0  0  0
   -1.6479    2.9523    2.8715 C   0  0  0  0  0  0  0  0  0  0  0  0
   -2.5541    2.5941    3.8507 C   0  0  0  0  0  0  0  0  0  0  0  0
   -2.1944    1.5511    4.6992 C   0  0  0  0  0  0  0  0  0  0  0  0
   -0.9515    0.9076    4.5476 C   0  0  0  0  0  0  0  0  0  0  0  0
   -0.0360    1.3078    3.5562 C   0  0  0  0  0  0  0  0  0  0  0  0
   -0.3908    2.3502    2.7171 C   0  0  0  0  0  0  0  0  0  0  0  0
    2.6307   -0.3905    0.7766 O   0  0  0  0  0  0  0  0  0  0  0  0
    4.0430   -0.1285    0.7892 C   0  0  0  0  0  0  0  0  0  0  0  0
    4.9218   -1.0404   -0.0765 C   0  0  0  0  0  0  0  0  0  0  0  0
    4.3853   -1.6952   -1.2092 O   0  0  0  0  0  0  0  0  0  0  0  0
    3.2779   -2.5796   -1.1088 C   0  0  0  0  0  0  0  0  0  0  0  0
    3.0822   -3.5863    0.0343 C   0  0  0  0  0  0  0  0  0  0  0  0
    3.4628   -3.1502    1.3399 O   0  0  0  0  0  0  0  0  0  0  0  0
    4.6167   -3.6954    1.7877 C   0  0  0  0  0  0  0  0  0  0  0  0
    5.3808   -4.4268    1.1825 O   0  0  0  0  0  0  0  0  0  0  0  0
    4.9204   -3.1625    3.1208 C   0  0  0  0  0  0  0  0  0  0  0  0
    6.1210   -2.4652    3.2951 C   0  0  0  0  0  0  0  0  0  0  0  0
    6.5277   -2.1065    4.5744 C   0  0  0  0  0  0  0  0  0  0  0  0
    5.7442   -2.4686    5.6775 C   0  0  0  0  0  0  0  0  0  0  0  0
    6.2997   -2.3271    7.0397 C   0  0  0  0  0  0  0  0  0  0  0  0
    6.8480   -3.5450    7.7273 C   0  0  0  0  0  0  0  0  0  0  0  0
    7.3262   -3.6693    8.9375 N   0  0  0  0  0  0  0  0  0  0  0  0
    7.6735   -5.0082    9.0687 C   0  0  0  0  0  0  0  0  0  0  0  0
    8.2368   -5.6304   10.1307 C   0  0  0  0  0  0  0  0  0  0  0  0
    8.4831   -7.1078   10.0232 C   0  0  0  0  0  0  0  0  0  0  0  0
    9.4674   -7.6414    9.1808 C   0  0  0  0  0  0  0  0  0  0  0  0
   10.2015   -6.8368    8.3973 F   0  0  0  0  0  0  0  0  0  0  0  0
    9.6915   -9.0176    9.0989 C   0  0  0  0  0  0  0  0  0  0  0  0
    8.9507   -9.8924    9.8913 C   0  0  0  0  0  0  0  0  0  0  0  0
    7.9781   -9.3840   10.7490 C   0  0  0  0  0  0  0  0  0  0  0  0
    7.7436   -8.0090   10.8005 C   0  0  0  0  0  0  0  0  0  0  0  0
    6.7867   -7.5671   11.6305 F   0  0  0  0  0  0  0  0  0  0  0  0
    8.5803   -4.9635   11.3592 C   0  0  0  0  0  0  0  0  0  0  0  0
    9.1789   -5.4914   12.4889 C   0  0  0  0  0  0  0  0  0  0  0  0
    9.2510   -4.4826   13.4546 C   0  0  0  0  0  0  0  0  0  0  0  0
    8.7588   -3.3095   12.9038 C   0  0  0  0  0  0  0  0  0  0  0  0
    8.3453   -3.6209   11.6196 N   0  0  0  0  0  0  0  0  0  0  0  0
    8.6725   -2.0030   13.5074 C   0  0  0  0  0  0  0  0  0  0  0  0
    9.1865   -1.8490   14.9101 C   0  0  0  0  0  0  0  0  0  0  0  0
    8.3297   -1.6278   15.9956 C   0  0  0  0  0  0  0  0  0  0  0  0
    7.0086   -1.4946   15.8036 F   0  0  0  0  0  0  0  0  0  0  0  0
    8.8197   -1.5020   17.2967 C   0  0  0  0  0  0  0  0  0  0  0  0
   10.1854   -1.6335   17.5424 C   0  0  0  0  0  0  0  0  0  0  0  0
   11.0544   -1.8744   16.4808 C   0  0  0  0  0  0  0  0  0  0  0  0
   10.5564   -1.9664   15.1810 C   0  0  0  0  0  0  0  0  0  0  0  0
   11.4309   -2.1905   14.1885 F   0  0  0  0  0  0  0  0  0  0  0  0
    8.1909   -0.8914   12.8976 C   0  0  0  0  0  0  0  0  0  0  0  0
    7.6939   -0.7432   11.6087 N   0  0  0  0  0  0  0  0  0  0  0  0
    7.3458    0.5170   11.4986 C   0  0  0  0  0  0  0  0  0  0  0  0
    6.7755    1.2443   10.3109 C   0  0  0  0  0  0  0  0  0  0  0  0
    6.4292    2.6856   10.3879 C   0  0  0  0  0  0  0  0  0  0  0  0
    7.4193    3.6662   10.5114 C   0  0  0  0  0  0  0  0  0  0  0  0
    8.7119    3.3151   10.5797 F   0  0  0  0  0  0  0  0  0  0  0  0
    7.0985    5.0217   10.6037 C   0  0  0  0  0  0  0  0  0  0  0  0
    5.7664    5.4270   10.5436 C   0  0  0  0  0  0  0  0  0  0  0  0
    4.7634    4.4704   10.4042 C   0  0  0  0  0  0  0  0  0  0  0  0
    5.0972    3.1170   10.3416 C   0  0  0  0  0  0  0  0  0  0  0  0
    4.1007    2.2278   10.2180 F   0  0  0  0  0  0  0  0  0  0  0  0
    6.5660    0.5640    9.1686 C   0  0  0  0  0  0  0  0  0  0  0  0
    6.0201    1.1173    7.9316 C   0  0  0  0  0  0  0  0  0  0  0  0
    5.8596    0.1246    7.0410 C   0  0  0  0  0  0  0  0  0  0  0  0
    6.3292   -1.1249    7.6373 C   0  0  0  0  0  0  0  0  0  0  0  0
    6.7649   -0.7638    8.8848 N   0  0  0  0  0  0  0  0  0  0  0  0
    7.5565    1.3064   12.7192 C   0  0  0  0  0  0  0  0  0  0  0  0
    8.1111    0.4120   13.5252 C   0  0  0  0  0  0  0  0  0  0  0  0
    7.3261   -5.6623    7.8266 C   0  0  0  0  0  0  0  0  0  0  0  0
    6.8523   -4.7935    6.9462 C   0  0  0  0  0  0  0  0  0  0  0  0
    4.5051   -3.1054    5.4870 C   0  0  0  0  0  0  0  0  0  0  0  0
    4.0912   -3.4583    4.2036 C   0  0  0  0  0  0  0  0  0  0  0  0
    1.3987    1.4126   -1.7282 H   0  0  0  0  0  0  0  0  0  0  0  0
    2.6412    0.1578   -2.0272 H   0  0  0  0  0  0  0  0  0  0  0  0
    3.9134    3.4049   -2.8406 H   0  0  0  0  0  0  0  0  0  0  0  0
    3.5023    5.7928   -2.9132 H   0  0  0  0  0  0  0  0  0  0  0  0
    2.3732    6.8634   -1.0535 H   0  0  0  0  0  0  0  0  0  0  0  0
    1.5777    5.5461    0.8090 H   0  0  0  0  0  0  0  0  0  0  0  0
    2.1232    2.2359    1.6303 H   0  0  0  0  0  0  0  0  0  0  0  0
   -2.6740    4.4576    1.8199 H   0  0  0  0  0  0  0  0  0  0  0  0
   -3.4596    3.0794    3.9489 H   0  0  0  0  0  0  0  0  0  0  0  0
   -2.8421    1.2479    5.4432 H   0  0  0  0  0  0  0  0  0  0  0  0
   -0.7066    0.1266    5.1761 H   0  0  0  0  0  0  0  0  0  0  0  0
    0.8766    0.8361    3.4573 H   0  0  0  0  0  0  0  0  0  0  0  0
    4.3802   -0.2187    1.8007 H   0  0  0  0  0  0  0  0  0  0  0  0
    4.1510    0.8487    0.3668 H   0  0  0  0  0  0  0  0  0  0  0  0
    5.2978   -1.8059    0.5697 H   0  0  0  0  0  0  0  0  0  0  0  0
    5.6245   -0.3573   -0.5060 H   0  0  0  0  0  0  0  0  0  0  0  0
    3.2883   -3.1601   -2.0076 H   0  0  0  0  0  0  0  0  0  0  0  0
    2.4847   -1.8896   -0.9095 H   0  0  0  0  0  0  0  0  0  0  0  0
    3.6579   -4.4578   -0.1980 H   0  0  0  0  0  0  0  0  0  0  0  0
    2.0265   -3.7521    0.0878 H   0  0  0  0  0  0  0  0  0  0  0  0
    6.7012   -2.2187    2.4780 H   0  0  0  0  0  0  0  0  0  0  0  0
    7.4024   -1.5761    4.7111 H   0  0  0  0  0  0  0  0  0  0  0  0
   10.4056   -9.3865    8.4516 H   0  0  0  0  0  0  0  0  0  0  0  0
    9.1214  -10.9090    9.8430 H   0  0  0  0  0  0  0  0  0  0  0  0
    7.4311  -10.0237   11.3462 H   0  0  0  0  0  0  0  0  0  0  0  0
    9.5140   -6.4611   12.5998 H   0  0  0  0  0  0  0  0  0  0  0  0
    9.6102   -4.5929   14.4158 H   0  0  0  0  0  0  0  0  0  0  0  0
    7.9440   -2.9840   10.9851 H   0  0  0  0  0  0  0  0  0  0  0  0
    8.1710   -1.3117   18.0764 H   0  0  0  0  0  0  0  0  0  0  0  0
   10.5503   -1.5529   18.5044 H   0  0  0  0  0  0  0  0  0  0  0  0
   12.0655   -1.9847   16.6557 H   0  0  0  0  0  0  0  0  0  0  0  0
    7.8471    5.7231   10.7163 H   0  0  0  0  0  0  0  0  0  0  0  0
    5.5248    6.4286   10.6020 H   0  0  0  0  0  0  0  0  0  0  0  0
    3.7751    4.7622   10.3473 H   0  0  0  0  0  0  0  0  0  0  0  0
    5.7941    2.1109    7.7683 H   0  0  0  0  0  0  0  0  0  0  0  0
    5.4688    0.2272    6.0914 H   0  0  0  0  0  0  0  0  0  0  0  0
    7.1801   -1.3951    9.5160 H   0  0  0  0  0  0  0  0  0  0  0  0
    7.3318    2.2970   12.9014 H   0  0  0  0  0  0  0  0  0  0  0  0
    8.4442    0.6182   14.4799 H   0  0  0  0  0  0  0  0  0  0  0  0
    7.4333   -6.6733    7.6494 H   0  0  0  0  0  0  0  0  0  0  0  0
    6.5620   -4.9505    5.9684 H   0  0  0  0  0  0  0  0  0  0  0  0
    3.9015   -3.3117    6.2982 H   0  0  0  0  0  0  0  0  0  0  0  0
    3.1857   -3.9310    4.0564 H   0  0  0  0  0  0  0  0  0  0  0  0
  1  2  2  0  0  0  0
  2  3  1  0  0  0  0
  2 22  1  0  0  0  0
  3  4  1  0  0  0  0
  3 85  1  0  0  0  0
  3 86  1  0  0  0  0
  4  5  1  0  0  0  0
  5  6  1  0  0  0  0
  5 10  2  0  0  0  0
  6  7  2  0  0  0  0
  6 87  1  0  0  0  0
  7  8  1  0  0  0  0
  7 88  1  0  0  0  0
  8  9  2  0  0  0  0
  8 89  1  0  0  0  0
  9 10  1  0  0  0  0
  9 90  1  0  0  0  0
 10 11  1  0  0  0  0
 11 12  2  0  0  0  0
 11 91  1  0  0  0  0
 12 13  1  0  0  0  0
 12 21  1  0  0  0  0
 13 14  2  0  0  0  0
 13 15  1  0  0  0  0
 15 16  1  0  0  0  0
 15 92  1  0  0  0  0
 16 17  1  0  0  0  0
 16 21  2  0  0  0  0
 17 18  2  0  0  0  0
 17 93  1  0  0  0  0
 18 19  1  0  0  0  0
 18 94  1  0  0  0  0
 19 20  2  0  0  0  0
 19 95  1  0  0  0  0
 20 21  1  0  0  0  0
 20 96  1  0  0  0  0
 22 23  1  0  0  0  0
 23 24  1  0  0  0  0
 23 97  1  0  0  0  0
 23 98  1  0  0  0  0
 24 25  1  0  0  0  0
 24 99  1  0  0  0  0
 24100  1  0  0  0  0
 25 26  1  0  0  0  0
 26 27  1  0  0  0  0
 26101  1  0  0  0  0
 26102  1  0  0  0  0
 27 28  1  0  0  0  0
 27103  1  0  0  0  0
 27104  1  0  0  0  0
 28 29  1  0  0  0  0
 29 30  2  0  0  0  0
 29 31  1  0  0  0  0
 31 32  1  0  0  0  0
 31 84  2  0  0  0  0
 32 33  2  0  0  0  0
 32105  1  0  0  0  0
 33 34  1  0  0  0  0
 33106  1  0  0  0  0
 34 35  1  0  0  0  0
 34 83  2  0  0  0  0
 35 36  1  0  0  0  0
 35 77  2  0  0  0  0
 36 37  2  0  0  0  0
 36 82  1  0  0  0  0
 37 38  1  0  0  0  0
 38 39  2  0  0  0  0
 38 81  1  0  0  0  0
 39 40  1  0  0  0  0
 39 48  1  0  0  0  0
 40 41  1  0  0  0  0
 40 46  2  0  0  0  0
 41 42  1  0  0  0  0
 41 43  2  0  0  0  0
 43 44  1  0  0  0  0
 43107  1  0  0  0  0
 44 45  2  0  0  0  0
 44108  1  0  0  0  0
 45 46  1  0  0  0  0
 45109  1  0  0  0  0
 46 47  1  0  0  0  0
 48 49  2  0  0  0  0
 48 52  1  0  0  0  0
 49 50  1  0  0  0  0
 49110  1  0  0  0  0
 50 51  2  0  0  0  0
 50111  1  0  0  0  0
 51 52  1  0  0  0  0
 51 53  1  0  0  0  0
 52112  1  0  0  0  0
 53 54  1  0  0  0  0
 53 62  2  0  0  0  0
 54 55  1  0  0  0  0
 54 60  2  0  0  0  0
 55 56  1  0  0  0  0
 55 57  2  0  0  0  0
 57 58  1  0  0  0  0
 57113  1  0  0  0  0
 58 59  2  0  0  0  0
 58114  1  0  0  0  0
 59 60  1  0  0  0  0
 59115  1  0  0  0  0
 60 61  1  0  0  0  0
 62 63  1  0  0  0  0
 62 80  1  0  0  0  0
 63 64  2  0  0  0  0
 64 65  1  0  0  0  0
 64 79  1  0  0  0  0
 65 66  1  0  0  0  0
 65 74  2  0  0  0  0
 66 67  1  0  0  0  0
 66 72  2  0  0  0  0
 67 68  1  0  0  0  0
 67 69  2  0  0  0  0
 69 70  1  0  0  0  0
 69116  1  0  0  0  0
 70 71  2  0  0  0  0
 70117  1  0  0  0  0
 71 72  1  0  0  0  0
 71118  1  0  0  0  0
 72 73  1  0  0  0  0
 74 75  1  0  0  0  0
 74 78  1  0  0  0  0
 75 76  2  0  0  0  0
 75119  1  0  0  0  0
 76 77  1  0  0  0  0
 76120  1  0  0  0  0
 77 78  1  0  0  0  0
 78121  1  0  0  0  0
 79 80  2  0  0  0  0
 79122  1  0  0  0  0
 80123  1  0  0  0  0
 81 82  2  0  0  0  0
 81124  1  0  0  0  0
 82125  1  0  0  0  0
 83 84  1  0  0  0  0
 83126  1  0  0  0  0
 84127  1  0  0  0  0
M  END
$$$$
