1_4_4441
 OpenBabel04152301353D

110120  0  0  0  0  0  0  0  0999 V2000
    0.8335   -0.7631    0.8690 O   0  0  0  0  0  0  0  0  0  0  0  0
    2.0467   -0.7476    0.6607 C   0  0  0  0  0  0  0  0  0  0  0  0
    2.4817   -1.0083   -0.5921 O   0  0  0  0  0  0  0  0  0  0  0  0
    3.8253   -1.0145   -1.1085 C   0  0  0  0  0  0  0  0  0  0  0  0
    4.0775    0.2656   -1.9077 C   0  0  0  0  0  0  0  0  0  0  0  0
    3.9257    1.4435   -1.1130 O   0  0  0  0  0  0  0  0  0  0  0  0
    2.6324    2.0567   -1.1651 C   0  0  0  0  0  0  0  0  0  0  0  0
    2.7970    3.5549   -1.4442 C   0  0  0  0  0  0  0  0  0  0  0  0
    3.3588    3.7170   -2.7570 O   0  0  0  0  0  0  0  0  0  0  0  0
    4.7278    3.6521   -2.7960 C   0  0  0  0  0  0  0  0  0  0  0  0
    5.4629    3.9347   -1.8584 O   0  0  0  0  0  0  0  0  0  0  0  0
    5.1904    3.0794   -4.0598 C   0  0  0  0  0  0  0  0  0  0  0  0
    4.5102    3.0661   -5.2660 C   0  0  0  0  0  0  0  0  0  0  0  0
    5.2658    2.3043   -6.1169 N   0  0  0  0  0  0  0  0  0  0  0  0
    5.0233    1.9505   -7.4414 C   0  0  0  0  0  0  0  0  0  0  0  0
    5.8915    1.1396   -8.0709 C   0  0  0  0  0  0  0  0  0  0  0  0
    7.0554    0.6532   -7.3425 C   0  0  0  0  0  0  0  0  0  0  0  0
    7.2885    1.0126   -6.0650 C   0  0  0  0  0  0  0  0  0  0  0  0
    6.3766    1.8783   -5.3990 C   0  0  0  0  0  0  0  0  0  0  0  0
    6.3673    2.3541   -4.1740 N   0  0  0  0  0  0  0  0  0  0  0  0
    2.9406   -0.4772    1.8301 C   0  0  0  0  0  0  0  0  0  0  0  0
    4.1840    0.1572    1.7775 C   0  0  0  0  0  0  0  0  0  0  0  0
    4.9172    0.4080    2.9415 C   0  0  0  0  0  0  0  0  0  0  0  0
    4.3917    0.0868    4.1960 C   0  0  0  0  0  0  0  0  0  0  0  0
    5.1759    0.3737    5.4173 C   0  0  0  0  0  0  0  0  0  0  0  0
    5.8714   -0.7405    6.1397 C   0  0  0  0  0  0  0  0  0  0  0  0
    6.6189   -0.6891    7.2121 N   0  0  0  0  0  0  0  0  0  0  0  0
    7.0158   -1.9954    7.4563 C   0  0  0  0  0  0  0  0  0  0  0  0
    7.8168   -2.4645    8.4412 C   0  0  0  0  0  0  0  0  0  0  0  0
    8.0703   -3.9376    8.4547 C   0  0  0  0  0  0  0  0  0  0  0  0
    9.0306   -4.5177    7.6176 C   0  0  0  0  0  0  0  0  0  0  0  0
    9.7434   -3.7583    6.7723 F   0  0  0  0  0  0  0  0  0  0  0  0
    9.2495   -5.8958    7.6105 C   0  0  0  0  0  0  0  0  0  0  0  0
    8.5130   -6.7214    8.4589 C   0  0  0  0  0  0  0  0  0  0  0  0
    7.5591   -6.1614    9.3076 C   0  0  0  0  0  0  0  0  0  0  0  0
    7.3423   -4.7831    9.2989 C   0  0  0  0  0  0  0  0  0  0  0  0
    6.4031   -4.2844   10.1165 F   0  0  0  0  0  0  0  0  0  0  0  0
    8.4171   -1.6517    9.4629 C   0  0  0  0  0  0  0  0  0  0  0  0
    9.2135   -2.0435   10.5249 C   0  0  0  0  0  0  0  0  0  0  0  0
    9.5584   -0.9002   11.2571 C   0  0  0  0  0  0  0  0  0  0  0  0
    8.9873    0.2012   10.6405 C   0  0  0  0  0  0  0  0  0  0  0  0
    8.2890   -0.2741    9.5438 N   0  0  0  0  0  0  0  0  0  0  0  0
    9.0691    1.5862   11.0209 C   0  0  0  0  0  0  0  0  0  0  0  0
    9.8622    1.9314   12.2404 C   0  0  0  0  0  0  0  0  0  0  0  0
    9.2374    2.1362   13.4758 C   0  0  0  0  0  0  0  0  0  0  0  0
    7.9020    2.0669   13.5820 F   0  0  0  0  0  0  0  0  0  0  0  0
    9.9757    2.4355   14.6210 C   0  0  0  0  0  0  0  0  0  0  0  0
   11.3652    2.5238   14.5490 C   0  0  0  0  0  0  0  0  0  0  0  0
   12.0065    2.3189   13.3280 C   0  0  0  0  0  0  0  0  0  0  0  0
   11.2568    2.0291   12.1876 C   0  0  0  0  0  0  0  0  0  0  0  0
   11.9091    1.8438   11.0304 F   0  0  0  0  0  0  0  0  0  0  0  0
    8.4811    2.6134   10.3624 C   0  0  0  0  0  0  0  0  0  0  0  0
    7.6875    2.5772    9.2252 N   0  0  0  0  0  0  0  0  0  0  0  0
    7.3414    3.8190    8.9908 C   0  0  0  0  0  0  0  0  0  0  0  0
    6.4834    4.3679    7.8889 C   0  0  0  0  0  0  0  0  0  0  0  0
    6.2572    5.8255    7.7625 C   0  0  0  0  0  0  0  0  0  0  0  0
    7.2528    6.6645    7.2520 C   0  0  0  0  0  0  0  0  0  0  0  0
    8.4421    6.1598    6.8931 F   0  0  0  0  0  0  0  0  0  0  0  0
    7.0507    8.0391    7.1238 C   0  0  0  0  0  0  0  0  0  0  0  0
    5.8304    8.5998    7.4980 C   0  0  0  0  0  0  0  0  0  0  0  0
    4.8235    7.7807    8.0065 C   0  0  0  0  0  0  0  0  0  0  0  0
    5.0437    6.4095    8.1405 C   0  0  0  0  0  0  0  0  0  0  0  0
    4.0547    5.6532    8.6385 F   0  0  0  0  0  0  0  0  0  0  0  0
    5.9232    3.5257    7.0016 C   0  0  0  0  0  0  0  0  0  0  0  0
    5.0712    3.9161    5.8820 C   0  0  0  0  0  0  0  0  0  0  0  0
    4.6931    2.8134    5.2143 C   0  0  0  0  0  0  0  0  0  0  0  0
    5.3004    1.6423    5.8478 C   0  0  0  0  0  0  0  0  0  0  0  0
    5.9978    2.1584    6.9095 N   0  0  0  0  0  0  0  0  0  0  0  0
    7.8776    4.7882    9.9575 C   0  0  0  0  0  0  0  0  0  0  0  0
    8.5799    4.0024   10.7630 C   0  0  0  0  0  0  0  0  0  0  0  0
    6.4121   -2.8221    6.4321 C   0  0  0  0  0  0  0  0  0  0  0  0
    5.7091   -2.0909    5.5791 C   0  0  0  0  0  0  0  0  0  0  0  0
    3.1277   -0.5044    4.2705 C   0  0  0  0  0  0  0  0  0  0  0  0
    2.4202   -0.7956    3.0988 C   0  0  0  0  0  0  0  0  0  0  0  0
    3.9572   -1.8635   -1.7462 H   0  0  0  0  0  0  0  0  0  0  0  0
    4.5173   -1.0654   -0.2940 H   0  0  0  0  0  0  0  0  0  0  0  0
    3.3813    0.3067   -2.7192 H   0  0  0  0  0  0  0  0  0  0  0  0
    5.0879    0.2371   -2.2586 H   0  0  0  0  0  0  0  0  0  0  0  0
    2.1332    1.9197   -0.2287 H   0  0  0  0  0  0  0  0  0  0  0  0
    2.0521    1.6072   -1.9436 H   0  0  0  0  0  0  0  0  0  0  0  0
    3.4509    3.9876   -0.7162 H   0  0  0  0  0  0  0  0  0  0  0  0
    1.8467    4.0437   -1.3900 H   0  0  0  0  0  0  0  0  0  0  0  0
    3.6160    3.5348   -5.4800 H   0  0  0  0  0  0  0  0  0  0  0  0
    4.1885    2.3058   -7.9333 H   0  0  0  0  0  0  0  0  0  0  0  0
    5.7359    0.8663   -9.0538 H   0  0  0  0  0  0  0  0  0  0  0  0
    7.7170    0.0184   -7.8161 H   0  0  0  0  0  0  0  0  0  0  0  0
    8.1244    0.6617   -5.5720 H   0  0  0  0  0  0  0  0  0  0  0  0
    4.5680    0.4457    0.8641 H   0  0  0  0  0  0  0  0  0  0  0  0
    5.8547    0.8341    2.8736 H   0  0  0  0  0  0  0  0  0  0  0  0
    9.9557   -6.3034    6.9780 H   0  0  0  0  0  0  0  0  0  0  0  0
    8.6730   -7.7409    8.4587 H   0  0  0  0  0  0  0  0  0  0  0  0
    7.0138   -6.7659    9.9418 H   0  0  0  0  0  0  0  0  0  0  0  0
    9.5031   -3.0104   10.7401 H   0  0  0  0  0  0  0  0  0  0  0  0
   10.1388   -0.8815   12.1102 H   0  0  0  0  0  0  0  0  0  0  0  0
    7.7772    0.2838    8.9145 H   0  0  0  0  0  0  0  0  0  0  0  0
    9.4940    2.5913   15.5203 H   0  0  0  0  0  0  0  0  0  0  0  0
   11.9160    2.7396   15.3946 H   0  0  0  0  0  0  0  0  0  0  0  0
   13.0348    2.3816   13.2679 H   0  0  0  0  0  0  0  0  0  0  0  0
    7.8033    8.6398    6.7526 H   0  0  0  0  0  0  0  0  0  0  0  0
    5.6734    9.6150    7.3992 H   0  0  0  0  0  0  0  0  0  0  0  0
    3.9166    8.1879    8.2834 H   0  0  0  0  0  0  0  0  0  0  0  0
    4.8027    4.8833    5.6422 H   0  0  0  0  0  0  0  0  0  0  0  0
    4.0746    2.7951    4.3884 H   0  0  0  0  0  0  0  0  0  0  0  0
    6.5035    1.6016    7.5447 H   0  0  0  0  0  0  0  0  0  0  0  0
    7.7430    5.8106    9.9986 H   0  0  0  0  0  0  0  0  0  0  0  0
    9.1267    4.3375   11.5716 H   0  0  0  0  0  0  0  0  0  0  0  0
    6.5158   -3.8472    6.3740 H   0  0  0  0  0  0  0  0  0  0  0  0
    5.1855   -2.3902    4.7417 H   0  0  0  0  0  0  0  0  0  0  0  0
    2.7157   -0.7264    5.1903 H   0  0  0  0  0  0  0  0  0  0  0  0
    1.4977   -1.2533    3.1662 H   0  0  0  0  0  0  0  0  0  0  0  0
  1  2  2  0  0  0  0
  2  3  1  0  0  0  0
  2 21  1  0  0  0  0
  3  4  1  0  0  0  0
  4  5  1  0  0  0  0
  4 75  1  0  0  0  0
  4 76  1  0  0  0  0
  5  6  1  0  0  0  0
  5 77  1  0  0  0  0
  5 78  1  0  0  0  0
  6  7  1  0  0  0  0
  7  8  1  0  0  0  0
  7 79  1  0  0  0  0
  7 80  1  0  0  0  0
  8  9  1  0  0  0  0
  8 81  1  0  0  0  0
  8 82  1  0  0  0  0
  9 10  1  0  0  0  0
 10 11  2  0  0  0  0
 10 12  1  0  0  0  0
 12 13  2  0  0  0  0
 12 20  1  0  0  0  0
 13 14  1  0  0  0  0
 13 83  1  0  0  0  0
 14 15  1  0  0  0  0
 14 19  1  0  0  0  0
 15 16  2  0  0  0  0
 15 84  1  0  0  0  0
 16 17  1  0  0  0  0
 16 85  1  0  0  0  0
 17 18  2  0  0  0  0
 17 86  1  0  0  0  0
 18 19  1  0  0  0  0
 18 87  1  0  0  0  0
 19 20  2  0  0  0  0
 21 22  1  0  0  0  0
 21 74  2  0  0  0  0
 22 23  2  0  0  0  0
 22 88  1  0  0  0  0
 23 24  1  0  0  0  0
 23 89  1  0  0  0  0
 24 25  1  0  0  0  0
 24 73  2  0  0  0  0
 25 26  1  0  0  0  0
 25 67  2  0  0  0  0
 26 27  2  0  0  0  0
 26 72  1  0  0  0  0
 27 28  1  0  0  0  0
 28 29  2  0  0  0  0
 28 71  1  0  0  0  0
 29 30  1  0  0  0  0
 29 38  1  0  0  0  0
 30 31  1  0  0  0  0
 30 36  2  0  0  0  0
 31 32  1  0  0  0  0
 31 33  2  0  0  0  0
 33 34  1  0  0  0  0
 33 90  1  0  0  0  0
 34 35  2  0  0  0  0
 34 91  1  0  0  0  0
 35 36  1  0  0  0  0
 35 92  1  0  0  0  0
 36 37  1  0  0  0  0
 38 39  2  0  0  0  0
 38 42  1  0  0  0  0
 39 40  1  0  0  0  0
 39 93  1  0  0  0  0
 40 41  2  0  0  0  0
 40 94  1  0  0  0  0
 41 42  1  0  0  0  0
 41 43  1  0  0  0  0
 42 95  1  0  0  0  0
 43 44  1  0  0  0  0
 43 52  2  0  0  0  0
 44 45  1  0  0  0  0
 44 50  2  0  0  0  0
 45 46  1  0  0  0  0
 45 47  2  0  0  0  0
 47 48  1  0  0  0  0
 47 96  1  0  0  0  0
 48 49  2  0  0  0  0
 48 97  1  0  0  0  0
 49 50  1  0  0  0  0
 49 98  1  0  0  0  0
 50 51  1  0  0  0  0
 52 53  1  0  0  0  0
 52 70  1  0  0  0  0
 53 54  2  0  0  0  0
 54 55  1  0  0  0  0
 54 69  1  0  0  0  0
 55 56  1  0  0  0  0
 55 64  2  0  0  0  0
 56 57  1  0  0  0  0
 56 62  2  0  0  0  0
 57 58  1  0  0  0  0
 57 59  2  0  0  0  0
 59 60  1  0  0  0  0
 59 99  1  0  0  0  0
 60 61  2  0  0  0  0
 60100  1  0  0  0  0
 61 62  1  0  0  0  0
 61101  1  0  0  0  0
 62 63  1  0  0  0  0
 64 65  1  0  0  0  0
 64 68  1  0  0  0  0
 65 66  2  0  0  0  0
 65102  1  0  0  0  0
 66 67  1  0  0  0  0
 66103  1  0  0  0  0
 67 68  1  0  0  0  0
 68104  1  0  0  0  0
 69 70  2  0  0  0  0
 69105  1  0  0  0  0
 70106  1  0  0  0  0
 71 72  2  0  0  0  0
 71107  1  0  0  0  0
 72108  1  0  0  0  0
 73 74  1  0  0  0  0
 73109  1  0  0  0  0
 74110  1  0  0  0  0
M  END
$$$$
