1_4_8865
 OpenBabel04152301373D

122131  0  0  1  0  0  0  0  0999 V2000
    1.0983   -0.5918   -0.3133 C   0  0  0  0  0  0  0  0  0  0  0  0
    0.4048   -0.0028    0.9243 C   0  0  1  0  0  0  0  0  0  0  0  0
    0.9212    1.7770    1.0538 S   0  0  0  0  0  0  0  0  0  0  0  0
    2.6271    1.7941    1.6435 C   0  0  0  0  0  0  0  0  0  0  0  0
    3.3285    0.6156    1.9471 C   0  0  0  0  0  0  0  0  0  0  0  0
    4.6782    0.6348    2.3332 C   0  0  0  0  0  0  0  0  0  0  0  0
    5.3641    1.8380    2.4537 C   0  0  0  0  0  0  0  0  0  0  0  0
    4.6990    3.0291    2.1909 C   0  0  0  0  0  0  0  0  0  0  0  0
    3.3490    2.9993    1.7901 C   0  0  0  0  0  0  0  0  0  0  0  0
    2.7416    4.2954    1.5247 N   0  3  0  0  0  0  0  0  0  0  0  0
    3.3028    5.0131    0.6844 O   0  0  0  0  0  0  0  0  0  0  0  0
    1.7637    4.6256    2.2083 O   0  5  0  0  0  0  0  0  0  0  0  0
   -1.1395   -0.1020    0.7843 C   0  0  1  0  0  0  0  0  0  0  0  0
   -1.6215   -1.4860    0.3292 C   0  0  0  0  0  0  0  0  0  0  0  0
   -1.9533    0.2279    2.0251 C   0  0  0  0  0  0  0  0  0  0  0  0
   -3.0324    0.8062    1.9560 O   0  0  0  0  0  0  0  0  0  0  0  0
   -1.4355   -0.3087    3.1662 O   0  0  0  0  0  0  0  0  0  0  0  0
   -2.3140   -0.2741    4.3108 C   0  0  0  0  0  0  0  0  0  0  0  0
   -1.9114    0.7324    5.3940 C   0  0  0  0  0  0  0  0  0  0  0  0
   -1.9671    2.1111    5.0400 O   0  0  0  0  0  0  0  0  0  0  0  0
   -0.9222    2.6089    4.2028 C   0  0  0  0  0  0  0  0  0  0  0  0
    0.4284    2.8056    4.8926 C   0  0  0  0  0  0  0  0  0  0  0  0
    0.9792    1.5528    5.3387 O   0  0  0  0  0  0  0  0  0  0  0  0
    1.4913    1.5992    6.5850 C   0  0  0  0  0  0  0  0  0  0  0  0
    1.7080    2.5960    7.2677 O   0  0  0  0  0  0  0  0  0  0  0  0
    1.6238    0.2455    7.1364 C   0  0  0  0  0  0  0  0  0  0  0  0
    0.8520   -0.0614    8.2618 C   0  0  0  0  0  0  0  0  0  0  0  0
    1.0981   -1.2337    8.9682 C   0  0  0  0  0  0  0  0  0  0  0  0
    2.1221   -2.1005    8.5584 C   0  0  0  0  0  0  0  0  0  0  0  0
    2.5240   -3.1924    9.4789 C   0  0  0  0  0  0  0  0  0  0  0  0
    3.7049   -2.9927   10.3905 C   0  0  0  0  0  0  0  0  0  0  0  0
    4.1302   -3.7462   11.3731 N   0  0  0  0  0  0  0  0  0  0  0  0
    5.2442   -3.0980   11.8923 C   0  0  0  0  0  0  0  0  0  0  0  0
    6.0111   -3.4476   12.9530 C   0  0  0  0  0  0  0  0  0  0  0  0
    7.1611   -2.5475   13.2977 C   0  0  0  0  0  0  0  0  0  0  0  0
    6.9652   -1.2950   13.8941 C   0  0  0  0  0  0  0  0  0  0  0  0
    5.7252   -0.8454   14.1392 F   0  0  0  0  0  0  0  0  0  0  0  0
    8.0402   -0.4651   14.2185 C   0  0  0  0  0  0  0  0  0  0  0  0
    9.3452   -0.8893   13.9746 C   0  0  0  0  0  0  0  0  0  0  0  0
    9.5644   -2.1380   13.3962 C   0  0  0  0  0  0  0  0  0  0  0  0
    8.4806   -2.9492   13.0558 C   0  0  0  0  0  0  0  0  0  0  0  0
    8.7376   -4.1379   12.4898 F   0  0  0  0  0  0  0  0  0  0  0  0
    5.8002   -4.6239   13.7555 C   0  0  0  0  0  0  0  0  0  0  0  0
    6.5109   -5.0538   14.8630 C   0  0  0  0  0  0  0  0  0  0  0  0
    5.9673   -6.2723   15.2864 C   0  0  0  0  0  0  0  0  0  0  0  0
    4.8919   -6.5786   14.4684 C   0  0  0  0  0  0  0  0  0  0  0  0
    4.8035   -5.5614   13.5321 N   0  0  0  0  0  0  0  0  0  0  0  0
    4.0056   -7.7118   14.5358 C   0  0  0  0  0  0  0  0  0  0  0  0
    4.2130   -8.7063   15.6401 C   0  0  0  0  0  0  0  0  0  0  0  0
    4.7300   -9.9846   15.3941 C   0  0  0  0  0  0  0  0  0  0  0  0
    5.0338  -10.3661   14.1442 F   0  0  0  0  0  0  0  0  0  0  0  0
    4.9049  -10.9106   16.4240 C   0  0  0  0  0  0  0  0  0  0  0  0
    4.5918  -10.5596   17.7360 C   0  0  0  0  0  0  0  0  0  0  0  0
    4.0985   -9.2849   18.0072 C   0  0  0  0  0  0  0  0  0  0  0  0
    3.9053   -8.3761   16.9659 C   0  0  0  0  0  0  0  0  0  0  0  0
    3.4155   -7.1650   17.2706 F   0  0  0  0  0  0  0  0  0  0  0  0
    2.9763   -7.9432   13.6841 C   0  0  0  0  0  0  0  0  0  0  0  0
    2.5514   -7.1875   12.5985 N   0  0  0  0  0  0  0  0  0  0  0  0
    1.5314   -7.8338   12.0877 C   0  0  0  0  0  0  0  0  0  0  0  0
    0.6575   -7.4594   10.9223 C   0  0  0  0  0  0  0  0  0  0  0  0
   -0.4774   -8.3245   10.5172 C   0  0  0  0  0  0  0  0  0  0  0  0
   -1.6202   -8.4481   11.3150 C   0  0  0  0  0  0  0  0  0  0  0  0
   -1.7037   -7.7911   12.4810 F   0  0  0  0  0  0  0  0  0  0  0  0
   -2.6817   -9.2760   10.9461 C   0  0  0  0  0  0  0  0  0  0  0  0
   -2.6269   -9.9839    9.7467 C   0  0  0  0  0  0  0  0  0  0  0  0
   -1.5043   -9.8659    8.9296 C   0  0  0  0  0  0  0  0  0  0  0  0
   -0.4412   -9.0519    9.3217 C   0  0  0  0  0  0  0  0  0  0  0  0
    0.6254   -8.9714    8.5125 F   0  0  0  0  0  0  0  0  0  0  0  0
    0.8943   -6.3126   10.2575 C   0  0  0  0  0  0  0  0  0  0  0  0
    0.0879   -5.7834    9.1593 C   0  0  0  0  0  0  0  0  0  0  0  0
    0.6056   -4.6098    8.7585 C   0  0  0  0  0  0  0  0  0  0  0  0
    1.7774   -4.3060    9.5776 C   0  0  0  0  0  0  0  0  0  0  0  0
    1.8833   -5.3764   10.4287 N   0  0  0  0  0  0  0  0  0  0  0  0
    1.2075   -9.0889   12.7807 C   0  0  0  0  0  0  0  0  0  0  0  0
    2.0916   -9.0871   13.7682 C   0  0  0  0  0  0  0  0  0  0  0  0
    5.4558   -1.9128   11.0894 C   0  0  0  0  0  0  0  0  0  0  0  0
    4.5123   -1.7830   10.1681 C   0  0  0  0  0  0  0  0  0  0  0  0
    2.8277   -1.8317    7.3720 C   0  0  0  0  0  0  0  0  0  0  0  0
    2.5844   -0.6503    6.6601 C   0  0  0  0  0  0  0  0  0  0  0  0
    2.1593   -0.5145   -0.1983 H   0  0  0  0  0  0  0  0  0  0  0  0
    0.7936   -0.0503   -1.1844 H   0  0  0  0  0  0  0  0  0  0  0  0
    0.8251   -1.6209   -0.4193 H   0  0  0  0  0  0  0  0  0  0  0  0
    0.6859   -0.5457    1.8024 H   0  0  0  0  0  0  0  0  0  0  0  0
    2.8378   -0.2901    1.8846 H   0  0  0  0  0  0  0  0  0  0  0  0
    5.1660   -0.2532    2.5295 H   0  0  0  0  0  0  0  0  0  0  0  0
    6.3569    1.8463    2.7354 H   0  0  0  0  0  0  0  0  0  0  0  0
    5.1914    3.9308    2.2888 H   0  0  0  0  0  0  0  0  0  0  0  0
   -1.3147    0.6512    0.0447 H   0  0  0  0  0  0  0  0  0  0  0  0
   -1.4256   -2.2028    1.0990 H   0  0  0  0  0  0  0  0  0  0  0  0
   -1.1021   -1.7692   -0.5624 H   0  0  0  0  0  0  0  0  0  0  0  0
   -2.6729   -1.4510    0.1336 H   0  0  0  0  0  0  0  0  0  0  0  0
   -2.3280   -1.2496    4.7503 H   0  0  0  0  0  0  0  0  0  0  0  0
   -3.2716    0.0370    3.9487 H   0  0  0  0  0  0  0  0  0  0  0  0
   -0.9049    0.5124    5.6827 H   0  0  0  0  0  0  0  0  0  0  0  0
   -2.6364    0.6127    6.1718 H   0  0  0  0  0  0  0  0  0  0  0  0
   -1.2343    3.5544    3.8110 H   0  0  0  0  0  0  0  0  0  0  0  0
   -0.7652    1.8645    3.4504 H   0  0  0  0  0  0  0  0  0  0  0  0
    0.2970    3.4485    5.7378 H   0  0  0  0  0  0  0  0  0  0  0  0
    1.1063    3.2386    4.1870 H   0  0  0  0  0  0  0  0  0  0  0  0
    0.1029    0.5796    8.5667 H   0  0  0  0  0  0  0  0  0  0  0  0
    0.5264   -1.4664    9.7953 H   0  0  0  0  0  0  0  0  0  0  0  0
    7.8685    0.4618   14.6386 H   0  0  0  0  0  0  0  0  0  0  0  0
   10.1433   -0.2831   14.2206 H   0  0  0  0  0  0  0  0  0  0  0  0
   10.5278   -2.4630   13.2195 H   0  0  0  0  0  0  0  0  0  0  0  0
    7.3047   -4.5609   15.3010 H   0  0  0  0  0  0  0  0  0  0  0  0
    6.3094   -6.8450   16.0738 H   0  0  0  0  0  0  0  0  0  0  0  0
    4.1319   -5.5116   12.8139 H   0  0  0  0  0  0  0  0  0  0  0  0
    5.2658  -11.8544   16.2141 H   0  0  0  0  0  0  0  0  0  0  0  0
    4.7244  -11.2391   18.5013 H   0  0  0  0  0  0  0  0  0  0  0  0
    3.8761   -9.0130   18.9776 H   0  0  0  0  0  0  0  0  0  0  0  0
   -3.5061   -9.3639   11.5607 H   0  0  0  0  0  0  0  0  0  0  0  0
   -3.4124  -10.5913    9.4657 H   0  0  0  0  0  0  0  0  0  0  0  0
   -1.4594  -10.3798    8.0358 H   0  0  0  0  0  0  0  0  0  0  0  0
   -0.7460   -6.2384    8.7560 H   0  0  0  0  0  0  0  0  0  0  0  0
    0.2362   -4.0195    7.9968 H   0  0  0  0  0  0  0  0  0  0  0  0
    2.5998   -5.4647   11.0981 H   0  0  0  0  0  0  0  0  0  0  0  0
    0.4821   -9.7880   12.5571 H   0  0  0  0  0  0  0  0  0  0  0  0
    2.1431   -9.8091   14.5038 H   0  0  0  0  0  0  0  0  0  0  0  0
    6.2398   -1.2541   11.2177 H   0  0  0  0  0  0  0  0  0  0  0  0
    4.3787   -1.0299    9.4753 H   0  0  0  0  0  0  0  0  0  0  0  0
    3.5268   -2.5069    7.0249 H   0  0  0  0  0  0  0  0  0  0  0  0
    3.1079   -0.4442    5.7949 H   0  0  0  0  0  0  0  0  0  0  0  0
  1  2  1  0  0  0  0
  1 80  1  0  0  0  0
  1 81  1  0  0  0  0
  1 82  1  0  0  0  0
  2  3  1  0  0  0  0
  2 13  1  0  0  0  0
  2 83  1  1  0  0  0
  3  4  1  0  0  0  0
  4  5  1  0  0  0  0
  4  9  2  0  0  0  0
  5  6  2  0  0  0  0
  5 84  1  0  0  0  0
  6  7  1  0  0  0  0
  6 85  1  0  0  0  0
  7  8  2  0  0  0  0
  7 86  1  0  0  0  0
  8  9  1  0  0  0  0
  8 87  1  0  0  0  0
  9 10  1  0  0  0  0
 10 11  2  0  0  0  0
 10 12  1  0  0  0  0
 13 14  1  0  0  0  0
 13 15  1  0  0  0  0
 13 88  1  6  0  0  0
 14 89  1  0  0  0  0
 14 90  1  0  0  0  0
 14 91  1  0  0  0  0
 15 16  2  0  0  0  0
 15 17  1  0  0  0  0
 17 18  1  0  0  0  0
 18 19  1  0  0  0  0
 18 92  1  0  0  0  0
 18 93  1  0  0  0  0
 19 20  1  0  0  0  0
 19 94  1  0  0  0  0
 19 95  1  0  0  0  0
 20 21  1  0  0  0  0
 21 22  1  0  0  0  0
 21 96  1  0  0  0  0
 21 97  1  0  0  0  0
 22 23  1  0  0  0  0
 22 98  1  0  0  0  0
 22 99  1  0  0  0  0
 23 24  1  0  0  0  0
 24 25  2  0  0  0  0
 24 26  1  0  0  0  0
 26 27  1  0  0  0  0
 26 79  2  0  0  0  0
 27 28  2  0  0  0  0
 27100  1  0  0  0  0
 28 29  1  0  0  0  0
 28101  1  0  0  0  0
 29 30  1  0  0  0  0
 29 78  2  0  0  0  0
 30 31  1  0  0  0  0
 30 72  2  0  0  0  0
 31 32  2  0  0  0  0
 31 77  1  0  0  0  0
 32 33  1  0  0  0  0
 33 34  2  0  0  0  0
 33 76  1  0  0  0  0
 34 35  1  0  0  0  0
 34 43  1  0  0  0  0
 35 36  1  0  0  0  0
 35 41  2  0  0  0  0
 36 37  1  0  0  0  0
 36 38  2  0  0  0  0
 38 39  1  0  0  0  0
 38102  1  0  0  0  0
 39 40  2  0  0  0  0
 39103  1  0  0  0  0
 40 41  1  0  0  0  0
 40104  1  0  0  0  0
 41 42  1  0  0  0  0
 43 44  2  0  0  0  0
 43 47  1  0  0  0  0
 44 45  1  0  0  0  0
 44105  1  0  0  0  0
 45 46  2  0  0  0  0
 45106  1  0  0  0  0
 46 47  1  0  0  0  0
 46 48  1  0  0  0  0
 47107  1  0  0  0  0
 48 49  1  0  0  0  0
 48 57  2  0  0  0  0
 49 50  1  0  0  0  0
 49 55  2  0  0  0  0
 50 51  1  0  0  0  0
 50 52  2  0  0  0  0
 52 53  1  0  0  0  0
 52108  1  0  0  0  0
 53 54  2  0  0  0  0
 53109  1  0  0  0  0
 54 55  1  0  0  0  0
 54110  1  0  0  0  0
 55 56  1  0  0  0  0
 57 58  1  0  0  0  0
 57 75  1  0  0  0  0
 58 59  2  0  0  0  0
 59 60  1  0  0  0  0
 59 74  1  0  0  0  0
 60 61  1  0  0  0  0
 60 69  2  0  0  0  0
 61 62  1  0  0  0  0
 61 67  2  0  0  0  0
 62 63  1  0  0  0  0
 62 64  2  0  0  0  0
 64 65  1  0  0  0  0
 64111  1  0  0  0  0
 65 66  2  0  0  0  0
 65112  1  0  0  0  0
 66 67  1  0  0  0  0
 66113  1  0  0  0  0
 67 68  1  0  0  0  0
 69 70  1  0  0  0  0
 69 73  1  0  0  0  0
 70 71  2  0  0  0  0
 70114  1  0  0  0  0
 71 72  1  0  0  0  0
 71115  1  0  0  0  0
 72 73  1  0  0  0  0
 73116  1  0  0  0  0
 74 75  2  0  0  0  0
 74117  1  0  0  0  0
 75118  1  0  0  0  0
 76 77  2  0  0  0  0
 76119  1  0  0  0  0
 77120  1  0  0  0  0
 78 79  1  0  0  0  0
 78121  1  0  0  0  0
 79122  1  0  0  0  0
M  CHG  2  10   1  12  -1
M  END
$$$$
