1_4_3413
 OpenBabel04152301373D

144156  0  0  1  0  0  0  0  0999 V2000
    2.2453   -2.3041    1.3088 O   0  0  0  0  0  0  0  0  0  0  0  0
    3.2684   -1.6121    1.2580 C   0  0  0  0  0  0  0  0  0  0  0  0
    3.0100   -0.1109    1.0546 C   0  0  0  0  0  0  0  0  0  0  0  0
    2.7894    0.9381    2.1563 C   0  0  0  0  0  0  0  0  0  0  0  0
    3.9136    1.1630    3.1245 C   0  0  0  0  0  0  0  0  0  0  0  0
    4.1296    2.2114    3.7180 O   0  0  0  0  0  0  0  0  0  0  0  0
    4.7062    0.0766    3.2038 O   0  0  0  0  0  0  0  0  0  0  0  0
    6.0508    0.4096    2.8580 C   0  0  0  0  0  0  0  0  0  0  0  0
    6.1606    0.7171    1.3373 C   0  0  0  0  0  0  0  0  0  0  0  0
    5.2687    1.6557    0.7304 O   0  0  0  0  0  0  0  0  0  0  0  0
    5.1995    1.8165   -0.7179 C   0  0  0  0  0  0  0  0  0  0  0  0
    4.5260    0.8829   -1.9321 C   0  0  0  0  0  0  0  0  0  0  0  0
    3.5570   -0.2537   -1.7503 O   0  0  0  0  0  0  0  0  0  0  0  0
    3.4311   -1.2014   -2.7778 C   0  0  0  0  0  0  0  0  0  0  0  0
    3.9712   -1.0643   -3.8713 O   0  0  0  0  0  0  0  0  0  0  0  0
    2.7001   -2.5364   -2.4744 C   0  0  0  0  0  0  0  0  0  0  0  0
    3.1256   -3.3783   -1.4564 C   0  0  0  0  0  0  0  0  0  0  0  0
    2.6956   -4.7100   -1.2360 C   0  0  0  0  0  0  0  0  0  0  0  0
    1.7344   -5.3141   -2.0282 C   0  0  0  0  0  0  0  0  0  0  0  0
    1.3487   -6.7823   -1.8025 C   0  0  0  0  0  0  0  0  0  0  0  0
    1.3494   -7.7477   -2.9811 C   0  0  0  0  0  0  0  0  0  0  0  0
    0.7879   -8.9272   -3.1210 N   0  0  0  0  0  0  0  0  0  0  0  0
    1.0754   -9.3426   -4.4232 C   0  0  0  0  0  0  0  0  0  0  0  0
    0.7861  -10.5190   -5.0392 C   0  0  0  0  0  0  0  0  0  0  0  0
    1.1049  -10.6600   -6.5119 C   0  0  0  0  0  0  0  0  0  0  0  0
    2.4016  -10.8266   -7.0175 C   0  0  0  0  0  0  0  0  0  0  0  0
    3.4668  -10.7802   -6.2136 F   0  0  0  0  0  0  0  0  0  0  0  0
    2.6557  -11.0187   -8.3781 C   0  0  0  0  0  0  0  0  0  0  0  0
    1.6012  -11.0644   -9.2810 C   0  0  0  0  0  0  0  0  0  0  0  0
    0.3003  -10.9046   -8.8118 C   0  0  0  0  0  0  0  0  0  0  0  0
    0.0627  -10.6994   -7.4483 C   0  0  0  0  0  0  0  0  0  0  0  0
   -1.2111  -10.5577   -7.0524 F   0  0  0  0  0  0  0  0  0  0  0  0
    0.1810  -11.6536   -4.3776 C   0  0  0  0  0  0  0  0  0  0  0  0
   -0.1052  -12.9049   -4.8997 C   0  0  0  0  0  0  0  0  0  0  0  0
   -0.6833  -13.6847   -3.8914 C   0  0  0  0  0  0  0  0  0  0  0  0
   -0.7200  -12.9361   -2.7275 C   0  0  0  0  0  0  0  0  0  0  0  0
   -0.1926  -11.6904   -3.0411 N   0  0  0  0  0  0  0  0  0  0  0  0
   -1.2254  -13.3141   -1.4308 C   0  0  0  0  0  0  0  0  0  0  0  0
   -1.9411  -14.6305   -1.2953 C   0  0  0  0  0  0  0  0  0  0  0  0
   -3.3236  -14.7041   -1.0786 C   0  0  0  0  0  0  0  0  0  0  0  0
   -4.0507  -13.5847   -0.9442 F   0  0  0  0  0  0  0  0  0  0  0  0
   -3.9809  -15.9307   -0.9530 C   0  0  0  0  0  0  0  0  0  0  0  0
   -3.2659  -17.1205   -1.0752 C   0  0  0  0  0  0  0  0  0  0  0  0
   -1.8930  -17.0736   -1.3054 C   0  0  0  0  0  0  0  0  0  0  0  0
   -1.2427  -15.8412   -1.3997 C   0  0  0  0  0  0  0  0  0  0  0  0
    0.0826  -15.8471   -1.6078 F   0  0  0  0  0  0  0  0  0  0  0  0
   -1.0694  -12.5743   -0.3055 C   0  0  0  0  0  0  0  0  0  0  0  0
   -0.4265  -11.3516   -0.1480 N   0  0  0  0  0  0  0  0  0  0  0  0
   -0.5713  -11.0266    1.1138 C   0  0  0  0  0  0  0  0  0  0  0  0
   -0.0741   -9.8013    1.8443 C   0  0  0  0  0  0  0  0  0  0  0  0
   -0.3370   -9.6693    3.3180 C   0  0  0  0  0  0  0  0  0  0  0  0
    0.1850  -10.5702    4.2591 C   0  0  0  0  0  0  0  0  0  0  0  0
    0.9778  -11.5774    3.8637 F   0  0  0  0  0  0  0  0  0  0  0  0
   -0.1500  -10.5017    5.6184 C   0  0  0  0  0  0  0  0  0  0  0  0
   -0.9955   -9.4960    6.0801 C   0  0  0  0  0  0  0  0  0  0  0  0
   -1.5160   -8.5786    5.1729 C   0  0  0  0  0  0  0  0  0  0  0  0
   -1.2053   -8.6842    3.8136 C   0  0  0  0  0  0  0  0  0  0  0  0
   -1.7803   -7.8068    2.9785 F   0  0  0  0  0  0  0  0  0  0  0  0
    0.4866   -8.7919    1.1342 C   0  0  0  0  0  0  0  0  0  0  0  0
    0.9184   -7.5226    1.7060 C   0  0  0  0  0  0  0  0  0  0  0  0
    1.2028   -6.6594    0.7151 C   0  0  0  0  0  0  0  0  0  0  0  0
    1.1021   -7.3369   -0.5814 C   0  0  0  0  0  0  0  0  0  0  0  0
    0.7165   -8.6247   -0.2209 N   0  0  0  0  0  0  0  0  0  0  0  0
   -1.3410  -12.0106    1.8957 C   0  0  0  0  0  0  0  0  0  0  0  0
   -1.5820  -12.9513    0.9939 C   0  0  0  0  0  0  0  0  0  0  0  0
    1.8333   -8.2757   -5.0395 C   0  0  0  0  0  0  0  0  0  0  0  0
    2.1013   -7.3131   -4.1676 C   0  0  0  0  0  0  0  0  0  0  0  0
    1.2794   -4.4906   -3.0881 C   0  0  0  0  0  0  0  0  0  0  0  0
    1.7805   -3.1508   -3.3312 C   0  0  0  0  0  0  0  0  0  0  0  0
    4.5095   -2.2538    1.3963 N   0  3  0  0  0  0  0  0  0  0  0  0
    5.5280   -2.4004    0.5944 C   0  0  0  0  0  0  0  0  0  0  0  0
    5.9135   -1.5011   -0.8893 S   0  0  0  0  0  0  0  0  0  0  0  0
    7.6122   -1.9502   -0.9932 C   0  0  1  0  0  0  0  0  0  0  0  0
    8.7378   -0.9416   -1.0514 C   0  0  0  0  0  0  0  0  0  0  0  0
   10.1273   -2.0368   -0.6672 S   0  0  0  0  0  0  0  0  0  0  0  0
   10.7607   -2.4107   -1.9011 O   0  0  0  0  0  0  0  0  0  0  0  0
   10.8544   -1.4504    0.4487 O   0  0  0  0  0  0  0  0  0  0  0  0
    9.1341   -3.4379   -0.0284 C   0  0  0  0  0  0  0  0  0  0  0  0
    7.8632   -2.6948    0.3117 C   0  0  2  0  0  0  0  0  0  0  0  0
    6.5949   -3.3005    0.7436 N   0  0  0  0  0  0  0  0  0  0  0  0
    6.3821   -4.6366    0.3537 C   0  0  0  0  0  0  0  0  0  0  0  0
    6.4200   -5.6233    1.3311 C   0  0  0  0  0  0  0  0  0  0  0  0
    6.2008   -6.9531    0.9858 C   0  0  0  0  0  0  0  0  0  0  0  0
    5.9144   -7.3230   -0.3324 C   0  0  0  0  0  0  0  0  0  0  0  0
    5.7997   -8.6753   -0.4958 O   0  0  0  0  0  0  0  0  0  0  0  0
    5.0983   -9.2199   -1.5368 C   0  0  0  0  0  0  0  0  0  0  0  0
    4.0214  -10.0347   -1.1809 C   0  0  0  0  0  0  0  0  0  0  0  0
    3.4546  -10.8857   -2.1207 C   0  0  0  0  0  0  0  0  0  0  0  0
    3.9603  -10.9086   -3.4157 C   0  0  0  0  0  0  0  0  0  0  0  0
    4.9948  -10.0489   -3.7915 C   0  0  0  0  0  0  0  0  0  0  0  0
    5.5832   -9.2161   -2.8439 C   0  0  0  0  0  0  0  0  0  0  0  0
    5.8438   -6.3476   -1.3158 C   0  0  0  0  0  0  0  0  0  0  0  0
    6.0972   -5.0153   -0.9742 C   0  0  0  0  0  0  0  0  0  0  0  0
    2.1332   -0.0604    0.4435 H   0  0  0  0  0  0  0  0  0  0  0  0
    3.9791    0.1905    0.7157 H   0  0  0  0  0  0  0  0  0  0  0  0
    1.9331    0.6354    2.7221 H   0  0  0  0  0  0  0  0  0  0  0  0
    2.6841    1.8669    1.6355 H   0  0  0  0  0  0  0  0  0  0  0  0
    6.6906   -0.4138    3.0981 H   0  0  0  0  0  0  0  0  0  0  0  0
    6.3455    1.2780    3.4093 H   0  0  0  0  0  0  0  0  0  0  0  0
    6.0268   -0.2122    0.8240 H   0  0  0  0  0  0  0  0  0  0  0  0
    7.1145    1.1942    1.2516 H   0  0  0  0  0  0  0  0  0  0  0  0
    6.2264    1.8968   -1.0077 H   0  0  0  0  0  0  0  0  0  0  0  0
    4.4357    2.5658   -0.7131 H   0  0  0  0  0  0  0  0  0  0  0  0
    5.3593    0.4582   -2.4518 H   0  0  0  0  0  0  0  0  0  0  0  0
    3.8717    1.6066   -2.3715 H   0  0  0  0  0  0  0  0  0  0  0  0
    3.8220   -2.9977   -0.7967 H   0  0  0  0  0  0  0  0  0  0  0  0
    3.1124   -5.2472   -0.4597 H   0  0  0  0  0  0  0  0  0  0  0  0
    3.6263  -11.1266   -8.7119 H   0  0  0  0  0  0  0  0  0  0  0  0
    1.7797  -11.2148  -10.2863 H   0  0  0  0  0  0  0  0  0  0  0  0
   -0.4920  -10.9376   -9.4723 H   0  0  0  0  0  0  0  0  0  0  0  0
    0.0771  -13.2103   -5.8685 H   0  0  0  0  0  0  0  0  0  0  0  0
   -1.0242  -14.6530   -3.9975 H   0  0  0  0  0  0  0  0  0  0  0  0
   -0.0975  -10.9425   -2.4080 H   0  0  0  0  0  0  0  0  0  0  0  0
   -4.9962  -15.9555   -0.7697 H   0  0  0  0  0  0  0  0  0  0  0  0
   -3.7495  -18.0287   -0.9958 H   0  0  0  0  0  0  0  0  0  0  0  0
   -1.3564  -17.9493   -1.4063 H   0  0  0  0  0  0  0  0  0  0  0  0
    0.2306  -11.1979    6.2783 H   0  0  0  0  0  0  0  0  0  0  0  0
   -1.2329   -9.4321    7.0824 H   0  0  0  0  0  0  0  0  0  0  0  0
   -2.1320   -7.8194    5.5034 H   0  0  0  0  0  0  0  0  0  0  0  0
    0.9941   -7.3182    2.7147 H   0  0  0  0  0  0  0  0  0  0  0  0
    1.4546   -5.6674    0.8474 H   0  0  0  0  0  0  0  0  0  0  0  0
    0.6158   -9.3546   -0.8738 H   0  0  0  0  0  0  0  0  0  0  0  0
   -1.6201  -11.9760    2.8886 H   0  0  0  0  0  0  0  0  0  0  0  0
   -2.0717  -13.8377    1.1927 H   0  0  0  0  0  0  0  0  0  0  0  0
    2.1271   -8.2650   -6.0287 H   0  0  0  0  0  0  0  0  0  0  0  0
    2.6880   -6.4731   -4.2905 H   0  0  0  0  0  0  0  0  0  0  0  0
    0.5537   -4.8634   -3.7201 H   0  0  0  0  0  0  0  0  0  0  0  0
    1.4485   -2.6354   -4.1614 H   0  0  0  0  0  0  0  0  0  0  0  0
    4.6367   -2.6786    2.2753 H   0  0  0  0  0  0  0  0  0  0  0  0
    7.6735   -2.4232   -1.9510 H   0  0  0  0  0  0  0  0  0  0  0  0
    8.6221   -0.1697   -0.3195 H   0  0  0  0  0  0  0  0  0  0  0  0
    8.8213   -0.4003   -1.9706 H   0  0  0  0  0  0  0  0  0  0  0  0
    9.5805   -3.8846    0.8353 H   0  0  0  0  0  0  0  0  0  0  0  0
    9.0180   -4.2624   -0.7004 H   0  0  0  0  0  0  0  0  0  0  0  0
    8.0822   -2.2069    1.2384 H   0  0  0  0  0  0  0  0  0  0  0  0
    6.6107   -5.3698    2.3131 H   0  0  0  0  0  0  0  0  0  0  0  0
    6.2505   -7.6805    1.7162 H   0  0  0  0  0  0  0  0  0  0  0  0
    3.6469  -10.0044   -0.2197 H   0  0  0  0  0  0  0  0  0  0  0  0
    2.6644  -11.4962   -1.8600 H   0  0  0  0  0  0  0  0  0  0  0  0
    3.5673  -11.5674   -4.1060 H   0  0  0  0  0  0  0  0  0  0  0  0
    5.3224  -10.0311   -4.7700 H   0  0  0  0  0  0  0  0  0  0  0  0
    6.3702   -8.6022   -3.1062 H   0  0  0  0  0  0  0  0  0  0  0  0
    5.6072   -6.6018   -2.2876 H   0  0  0  0  0  0  0  0  0  0  0  0
    6.0752   -4.2929   -1.7109 H   0  0  0  0  0  0  0  0  0  0  0  0
  1  2  2  0  0  0  0
  2  3  1  0  0  0  0
  2 70  1  0  0  0  0
  3  4  1  0  0  0  0
  3 94  1  0  0  0  0
  3 95  1  0  0  0  0
  4  5  1  0  0  0  0
  4 96  1  0  0  0  0
  4 97  1  0  0  0  0
  5  6  2  0  0  0  0
  5  7  1  0  0  0  0
  7  8  1  0  0  0  0
  8  9  1  0  0  0  0
  8 98  1  0  0  0  0
  8 99  1  0  0  0  0
  9 10  1  0  0  0  0
  9100  1  0  0  0  0
  9101  1  0  0  0  0
 10 11  1  0  0  0  0
 11 12  1  0  0  0  0
 11102  1  0  0  0  0
 11103  1  0  0  0  0
 12 13  1  0  0  0  0
 12104  1  0  0  0  0
 12105  1  0  0  0  0
 13 14  1  0  0  0  0
 14 15  2  0  0  0  0
 14 16  1  0  0  0  0
 16 17  1  0  0  0  0
 16 69  2  0  0  0  0
 17 18  2  0  0  0  0
 17106  1  0  0  0  0
 18 19  1  0  0  0  0
 18107  1  0  0  0  0
 19 20  1  0  0  0  0
 19 68  2  0  0  0  0
 20 21  1  0  0  0  0
 20 62  2  0  0  0  0
 21 22  2  0  0  0  0
 21 67  1  0  0  0  0
 22 23  1  0  0  0  0
 23 24  2  0  0  0  0
 23 66  1  0  0  0  0
 24 25  1  0  0  0  0
 24 33  1  0  0  0  0
 25 26  1  0  0  0  0
 25 31  2  0  0  0  0
 26 27  1  0  0  0  0
 26 28  2  0  0  0  0
 28 29  1  0  0  0  0
 28108  1  0  0  0  0
 29 30  2  0  0  0  0
 29109  1  0  0  0  0
 30 31  1  0  0  0  0
 30110  1  0  0  0  0
 31 32  1  0  0  0  0
 33 34  2  0  0  0  0
 33 37  1  0  0  0  0
 34 35  1  0  0  0  0
 34111  1  0  0  0  0
 35 36  2  0  0  0  0
 35112  1  0  0  0  0
 36 37  1  0  0  0  0
 36 38  1  0  0  0  0
 37113  1  0  0  0  0
 38 39  1  0  0  0  0
 38 47  2  0  0  0  0
 39 40  1  0  0  0  0
 39 45  2  0  0  0  0
 40 41  1  0  0  0  0
 40 42  2  0  0  0  0
 42 43  1  0  0  0  0
 42114  1  0  0  0  0
 43 44  2  0  0  0  0
 43115  1  0  0  0  0
 44 45  1  0  0  0  0
 44116  1  0  0  0  0
 45 46  1  0  0  0  0
 47 48  1  0  0  0  0
 47 65  1  0  0  0  0
 48 49  2  0  0  0  0
 49 50  1  0  0  0  0
 49 64  1  0  0  0  0
 50 51  1  0  0  0  0
 50 59  2  0  0  0  0
 51 52  1  0  0  0  0
 51 57  2  0  0  0  0
 52 53  1  0  0  0  0
 52 54  2  0  0  0  0
 54 55  1  0  0  0  0
 54117  1  0  0  0  0
 55 56  2  0  0  0  0
 55118  1  0  0  0  0
 56 57  1  0  0  0  0
 56119  1  0  0  0  0
 57 58  1  0  0  0  0
 59 60  1  0  0  0  0
 59 63  1  0  0  0  0
 60 61  2  0  0  0  0
 60120  1  0  0  0  0
 61 62  1  0  0  0  0
 61121  1  0  0  0  0
 62 63  1  0  0  0  0
 63122  1  0  0  0  0
 64 65  2  0  0  0  0
 64123  1  0  0  0  0
 65124  1  0  0  0  0
 66 67  2  0  0  0  0
 66125  1  0  0  0  0
 67126  1  0  0  0  0
 68 69  1  0  0  0  0
 68127  1  0  0  0  0
 69128  1  0  0  0  0
 70 71  2  0  0  0  0
 70129  1  0  0  0  0
 71 72  1  0  0  0  0
 71 80  1  0  0  0  0
 72 73  1  0  0  0  0
 73 74  1  0  0  0  0
 73 79  1  0  0  0  0
 73130  1  6  0  0  0
 74 75  1  0  0  0  0
 74131  1  0  0  0  0
 74132  1  0  0  0  0
 75 76  2  0  0  0  0
 75 77  2  0  0  0  0
 75 78  1  0  0  0  0
 78 79  1  0  0  0  0
 78133  1  0  0  0  0
 78134  1  0  0  0  0
 79 80  1  0  0  0  0
 79135  1  1  0  0  0
 80 81  1  0  0  0  0
 81 82  1  0  0  0  0
 81 93  2  0  0  0  0
 82 83  2  0  0  0  0
 82136  1  0  0  0  0
 83 84  1  0  0  0  0
 83137  1  0  0  0  0
 84 85  1  0  0  0  0
 84 92  2  0  0  0  0
 85 86  1  0  0  0  0
 86 87  1  0  0  0  0
 86 91  2  0  0  0  0
 87 88  2  0  0  0  0
 87138  1  0  0  0  0
 88 89  1  0  0  0  0
 88139  1  0  0  0  0
 89 90  2  0  0  0  0
 89140  1  0  0  0  0
 90 91  1  0  0  0  0
 90141  1  0  0  0  0
 91142  1  0  0  0  0
 92 93  1  0  0  0  0
 92143  1  0  0  0  0
 93144  1  0  0  0  0
M  CHG  1  70   1
M  END
$$$$
