1_4_9564
 OpenBabel04152301363D

135146  0  0  0  0  0  0  0  0999 V2000
    3.0289    0.1384    0.2086 C   0  0  0  0  0  0  0  0  0  0  0  0
    1.5375    0.0871    0.2790 C   0  0  0  0  0  0  0  0  0  0  0  0
    0.9078   -1.1582    0.3769 C   0  0  0  0  0  0  0  0  0  0  0  0
   -0.4580   -1.2513    0.1965 C   0  0  0  0  0  0  0  0  0  0  0  0
   -1.1806   -0.1023   -0.1328 C   0  0  0  0  0  0  0  0  0  0  0  0
   -2.5384   -0.2529   -0.7187 C   0  0  0  0  0  0  0  0  0  0  0  0
   -2.4996   -1.1636   -1.8826 N   0  0  0  0  0  0  0  0  0  0  0  0
   -3.3527   -2.3521   -1.7654 C   0  0  0  0  0  0  0  0  0  0  0  0
   -4.8174   -1.9239   -1.7668 C   0  0  0  0  0  0  0  0  0  0  0  0
   -5.7454   -2.6916   -1.6782 O   0  0  0  0  0  0  0  0  0  0  0  0
   -4.8902   -0.5542   -1.7898 O   0  0  0  0  0  0  0  0  0  0  0  0
   -6.1351    0.0526   -1.5077 C   0  0  0  0  0  0  0  0  0  0  0  0
   -6.4161    1.2510   -2.3399 C   0  0  0  0  0  0  0  0  0  0  0  0
   -6.5859    0.6859   -3.6042 O   0  0  0  0  0  0  0  0  0  0  0  0
   -5.4959    0.7752   -4.4698 C   0  0  0  0  0  0  0  0  0  0  0  0
   -5.8554    1.8641   -5.4557 C   0  0  0  0  0  0  0  0  0  0  0  0
   -7.0742    1.4444   -6.1296 O   0  0  0  0  0  0  0  0  0  0  0  0
   -8.2217    1.7926   -5.4669 C   0  0  0  0  0  0  0  0  0  0  0  0
   -8.5069    2.9412   -5.1594 O   0  0  0  0  0  0  0  0  0  0  0  0
   -8.9313    0.5888   -4.8978 C   0  0  0  0  0  0  0  0  0  0  0  0
   -9.8143    0.8031   -3.8206 C   0  0  0  0  0  0  0  0  0  0  0  0
  -10.0252   -0.1983   -2.8594 C   0  0  0  0  0  0  0  0  0  0  0  0
   -9.3208   -1.3964   -2.9547 C   0  0  0  0  0  0  0  0  0  0  0  0
   -9.3170   -2.4430   -1.9175 C   0  0  0  0  0  0  0  0  0  0  0  0
   -9.9160   -3.7513   -2.2570 C   0  0  0  0  0  0  0  0  0  0  0  0
  -10.2515   -4.6203   -1.3691 N   0  0  0  0  0  0  0  0  0  0  0  0
  -10.3707   -5.8191   -2.0205 C   0  0  0  0  0  0  0  0  0  0  0  0
  -10.0658   -6.9558   -1.3368 C   0  0  0  0  0  0  0  0  0  0  0  0
   -9.7776   -8.2925   -1.9923 C   0  0  0  0  0  0  0  0  0  0  0  0
   -9.6984   -9.4582   -1.2092 C   0  0  0  0  0  0  0  0  0  0  0  0
   -9.8796   -9.4156    0.1184 F   0  0  0  0  0  0  0  0  0  0  0  0
   -9.4186  -10.7247   -1.7482 C   0  0  0  0  0  0  0  0  0  0  0  0
   -9.2392  -10.8903   -3.1138 C   0  0  0  0  0  0  0  0  0  0  0  0
   -9.2849   -9.7698   -3.9229 C   0  0  0  0  0  0  0  0  0  0  0  0
   -9.5027   -8.5022   -3.3626 C   0  0  0  0  0  0  0  0  0  0  0  0
   -9.3593   -7.4943   -4.2304 F   0  0  0  0  0  0  0  0  0  0  0  0
   -9.8558   -6.6730    0.0955 C   0  0  0  0  0  0  0  0  0  0  0  0
   -8.7689   -6.7779    0.9462 C   0  0  0  0  0  0  0  0  0  0  0  0
   -9.0396   -5.9731    2.0992 C   0  0  0  0  0  0  0  0  0  0  0  0
  -10.3065   -5.4151    1.9729 C   0  0  0  0  0  0  0  0  0  0  0  0
  -10.8121   -5.9196    0.7894 N   0  0  0  0  0  0  0  0  0  0  0  0
  -11.1521   -4.6219    2.8672 C   0  0  0  0  0  0  0  0  0  0  0  0
  -12.3317   -5.2536    3.5261 C   0  0  0  0  0  0  0  0  0  0  0  0
  -13.4488   -4.5110    3.9425 C   0  0  0  0  0  0  0  0  0  0  0  0
  -13.4826   -3.1728    3.8579 F   0  0  0  0  0  0  0  0  0  0  0  0
  -14.6115   -5.1199    4.4068 C   0  0  0  0  0  0  0  0  0  0  0  0
  -14.7243   -6.5031    4.3930 C   0  0  0  0  0  0  0  0  0  0  0  0
  -13.6579   -7.2684    3.9429 C   0  0  0  0  0  0  0  0  0  0  0  0
  -12.4759   -6.6515    3.5444 C   0  0  0  0  0  0  0  0  0  0  0  0
  -11.4961   -7.4702    3.1337 F   0  0  0  0  0  0  0  0  0  0  0  0
  -10.8431   -3.3167    3.0928 C   0  0  0  0  0  0  0  0  0  0  0  0
  -10.2394   -2.5391    2.1656 N   0  0  0  0  0  0  0  0  0  0  0  0
   -9.8251   -1.4414    2.7403 C   0  0  0  0  0  0  0  0  0  0  0  0
   -8.7993   -0.5724    2.0894 C   0  0  0  0  0  0  0  0  0  0  0  0
   -8.8903    0.8282    1.5790 C   0  0  0  0  0  0  0  0  0  0  0  0
   -7.7066    1.6015    1.5673 C   0  0  0  0  0  0  0  0  0  0  0  0
   -6.6509    1.2253    2.3085 F   0  0  0  0  0  0  0  0  0  0  0  0
   -7.5159    2.6803    0.6916 C   0  0  0  0  0  0  0  0  0  0  0  0
   -8.5255    3.0318   -0.1962 C   0  0  0  0  0  0  0  0  0  0  0  0
   -9.7335    2.3360   -0.1548 C   0  0  0  0  0  0  0  0  0  0  0  0
   -9.9163    1.2608    0.7333 C   0  0  0  0  0  0  0  0  0  0  0  0
  -11.0663    0.5782    0.6563 F   0  0  0  0  0  0  0  0  0  0  0  0
   -8.0991   -1.3904    1.2637 C   0  0  0  0  0  0  0  0  0  0  0  0
   -7.8262   -2.8180    1.3656 C   0  0  0  0  0  0  0  0  0  0  0  0
   -8.2056   -3.3782    0.1952 C   0  0  0  0  0  0  0  0  0  0  0  0
   -8.6475   -2.3326   -0.7388 C   0  0  0  0  0  0  0  0  0  0  0  0
   -8.1001   -1.2044   -0.1189 N   0  0  0  0  0  0  0  0  0  0  0  0
  -10.3233   -1.2878    4.1001 C   0  0  0  0  0  0  0  0  0  0  0  0
  -10.9691   -2.4587    4.2622 C   0  0  0  0  0  0  0  0  0  0  0  0
  -10.5862   -5.4701   -3.3975 C   0  0  0  0  0  0  0  0  0  0  0  0
  -10.2343   -4.1984   -3.6162 C   0  0  0  0  0  0  0  0  0  0  0  0
   -8.5472   -1.6439   -4.1053 C   0  0  0  0  0  0  0  0  0  0  0  0
   -8.4151   -0.6927   -5.1137 C   0  0  0  0  0  0  0  0  0  0  0  0
   -2.0239   -0.6610   -3.1101 C   0  0  0  0  0  0  0  0  0  0  0  0
   -1.6084    0.4930   -3.2039 O   0  0  0  0  0  0  0  0  0  0  0  0
   -2.2471   -1.4684   -4.2978 C   0  0  0  0  0  0  0  0  0  0  0  0
   -3.1341   -1.1890   -5.3187 C   0  0  0  0  0  0  0  0  0  0  0  0
   -3.5539   -2.4049   -5.8825 C   0  0  0  0  0  0  0  0  0  0  0  0
   -2.4079   -3.1467   -6.0381 C   0  0  0  0  0  0  0  0  0  0  0  0
   -1.2951   -2.8184   -4.7861 S   0  0  0  0  0  0  0  0  0  0  0  0
   -2.2977   -4.1118   -7.1626 C   0  0  0  0  0  0  0  0  0  0  0  0
   -3.6824   -4.7559   -7.3441 C   0  0  0  0  0  0  0  0  0  0  0  0
   -4.6920   -3.7496   -7.5811 O   0  0  0  0  0  0  0  0  0  0  0  0
   -4.8527   -2.8331   -6.4819 C   0  0  0  0  0  0  0  0  0  0  0  0
   -0.5888    1.1599   -0.0791 C   0  0  0  0  0  0  0  0  0  0  0  0
    0.7781    1.2521    0.1196 C   0  0  0  0  0  0  0  0  0  0  0  0
    3.4268   -0.8443    0.3531 H   0  0  0  0  0  0  0  0  0  0  0  0
    3.3998    0.7893    0.9725 H   0  0  0  0  0  0  0  0  0  0  0  0
    3.3282    0.5069   -0.7503 H   0  0  0  0  0  0  0  0  0  0  0  0
    1.4619   -2.0040    0.5832 H   0  0  0  0  0  0  0  0  0  0  0  0
   -0.9387   -2.1582    0.3036 H   0  0  0  0  0  0  0  0  0  0  0  0
   -2.8951    0.7057   -1.0329 H   0  0  0  0  0  0  0  0  0  0  0  0
   -3.1922   -0.6640    0.0219 H   0  0  0  0  0  0  0  0  0  0  0  0
   -3.1305   -2.8628   -0.8518 H   0  0  0  0  0  0  0  0  0  0  0  0
   -3.1701   -3.0072   -2.5915 H   0  0  0  0  0  0  0  0  0  0  0  0
   -6.1426    0.3462   -0.4788 H   0  0  0  0  0  0  0  0  0  0  0  0
   -6.8931   -0.6688   -1.7312 H   0  0  0  0  0  0  0  0  0  0  0  0
   -5.5944    1.9363   -2.3264 H   0  0  0  0  0  0  0  0  0  0  0  0
   -7.2550    1.8246   -2.0050 H   0  0  0  0  0  0  0  0  0  0  0  0
   -5.3437   -0.1543   -4.9775 H   0  0  0  0  0  0  0  0  0  0  0  0
   -4.5888    0.9952   -3.9466 H   0  0  0  0  0  0  0  0  0  0  0  0
   -5.0667    1.9897   -6.1678 H   0  0  0  0  0  0  0  0  0  0  0  0
   -5.9990    2.7990   -4.9555 H   0  0  0  0  0  0  0  0  0  0  0  0
  -10.3104    1.7042   -3.7375 H   0  0  0  0  0  0  0  0  0  0  0  0
  -10.6958   -0.0482   -2.0895 H   0  0  0  0  0  0  0  0  0  0  0  0
   -9.3457  -11.5412   -1.1213 H   0  0  0  0  0  0  0  0  0  0  0  0
   -9.0757  -11.8266   -3.5159 H   0  0  0  0  0  0  0  0  0  0  0  0
   -9.1583   -9.8664   -4.9425 H   0  0  0  0  0  0  0  0  0  0  0  0
   -7.9168   -7.3357    0.7795 H   0  0  0  0  0  0  0  0  0  0  0  0
   -8.3981   -5.8305    2.8949 H   0  0  0  0  0  0  0  0  0  0  0  0
  -11.7319   -5.7681    0.4727 H   0  0  0  0  0  0  0  0  0  0  0  0
  -15.3899   -4.5425    4.7614 H   0  0  0  0  0  0  0  0  0  0  0  0
  -15.5930   -6.9581    4.7144 H   0  0  0  0  0  0  0  0  0  0  0  0
  -13.7415   -8.2963    3.9036 H   0  0  0  0  0  0  0  0  0  0  0  0
   -6.6305    3.2103    0.7065 H   0  0  0  0  0  0  0  0  0  0  0  0
   -8.3836    3.7957   -0.8755 H   0  0  0  0  0  0  0  0  0  0  0  0
  -10.5031    2.6136   -0.7838 H   0  0  0  0  0  0  0  0  0  0  0  0
   -7.4201   -3.3087    2.1776 H   0  0  0  0  0  0  0  0  0  0  0  0
   -8.1877   -4.3891   -0.0117 H   0  0  0  0  0  0  0  0  0  0  0  0
   -7.7674   -0.4039   -0.5856 H   0  0  0  0  0  0  0  0  0  0  0  0
  -10.2123   -0.5000    4.7575 H   0  0  0  0  0  0  0  0  0  0  0  0
  -11.4912   -2.7169    5.1141 H   0  0  0  0  0  0  0  0  0  0  0  0
  -10.9596   -6.1100   -4.1160 H   0  0  0  0  0  0  0  0  0  0  0  0
  -10.1969   -3.6730   -4.5036 H   0  0  0  0  0  0  0  0  0  0  0  0
   -8.0667   -2.5519   -4.2034 H   0  0  0  0  0  0  0  0  0  0  0  0
   -7.9459   -0.9287   -6.0021 H   0  0  0  0  0  0  0  0  0  0  0  0
   -3.4366   -0.2483   -5.6163 H   0  0  0  0  0  0  0  0  0  0  0  0
   -1.5712   -4.8627   -6.9318 H   0  0  0  0  0  0  0  0  0  0  0  0
   -1.9875   -3.6174   -8.0594 H   0  0  0  0  0  0  0  0  0  0  0  0
   -3.9334   -5.3023   -6.4590 H   0  0  0  0  0  0  0  0  0  0  0  0
   -3.6468   -5.4104   -8.1898 H   0  0  0  0  0  0  0  0  0  0  0  0
   -5.3677   -1.9643   -6.8353 H   0  0  0  0  0  0  0  0  0  0  0  0
   -5.4038   -3.3426   -5.7193 H   0  0  0  0  0  0  0  0  0  0  0  0
   -1.1613    2.0119   -0.1859 H   0  0  0  0  0  0  0  0  0  0  0  0
    1.2357    2.1766    0.1501 H   0  0  0  0  0  0  0  0  0  0  0  0
  1  2  1  0  0  0  0
  1 87  1  0  0  0  0
  1 88  1  0  0  0  0
  1 89  1  0  0  0  0
  2  3  1  0  0  0  0
  2 86  2  0  0  0  0
  3  4  2  0  0  0  0
  3 90  1  0  0  0  0
  4  5  1  0  0  0  0
  4 91  1  0  0  0  0
  5  6  1  0  0  0  0
  5 85  2  0  0  0  0
  6  7  1  0  0  0  0
  6 92  1  0  0  0  0
  6 93  1  0  0  0  0
  7  8  1  0  0  0  0
  7 74  1  0  0  0  0
  8  9  1  0  0  0  0
  8 94  1  0  0  0  0
  8 95  1  0  0  0  0
  9 10  2  0  0  0  0
  9 11  1  0  0  0  0
 11 12  1  0  0  0  0
 12 13  1  0  0  0  0
 12 96  1  0  0  0  0
 12 97  1  0  0  0  0
 13 14  1  0  0  0  0
 13 98  1  0  0  0  0
 13 99  1  0  0  0  0
 14 15  1  0  0  0  0
 15 16  1  0  0  0  0
 15100  1  0  0  0  0
 15101  1  0  0  0  0
 16 17  1  0  0  0  0
 16102  1  0  0  0  0
 16103  1  0  0  0  0
 17 18  1  0  0  0  0
 18 19  2  0  0  0  0
 18 20  1  0  0  0  0
 20 21  1  0  0  0  0
 20 73  2  0  0  0  0
 21 22  2  0  0  0  0
 21104  1  0  0  0  0
 22 23  1  0  0  0  0
 22105  1  0  0  0  0
 23 24  1  0  0  0  0
 23 72  2  0  0  0  0
 24 25  1  0  0  0  0
 24 66  2  0  0  0  0
 25 26  2  0  0  0  0
 25 71  1  0  0  0  0
 26 27  1  0  0  0  0
 27 28  2  0  0  0  0
 27 70  1  0  0  0  0
 28 29  1  0  0  0  0
 28 37  1  0  0  0  0
 29 30  1  0  0  0  0
 29 35  2  0  0  0  0
 30 31  1  0  0  0  0
 30 32  2  0  0  0  0
 32 33  1  0  0  0  0
 32106  1  0  0  0  0
 33 34  2  0  0  0  0
 33107  1  0  0  0  0
 34 35  1  0  0  0  0
 34108  1  0  0  0  0
 35 36  1  0  0  0  0
 37 38  2  0  0  0  0
 37 41  1  0  0  0  0
 38 39  1  0  0  0  0
 38109  1  0  0  0  0
 39 40  2  0  0  0  0
 39110  1  0  0  0  0
 40 41  1  0  0  0  0
 40 42  1  0  0  0  0
 41111  1  0  0  0  0
 42 43  1  0  0  0  0
 42 51  2  0  0  0  0
 43 44  1  0  0  0  0
 43 49  2  0  0  0  0
 44 45  1  0  0  0  0
 44 46  2  0  0  0  0
 46 47  1  0  0  0  0
 46112  1  0  0  0  0
 47 48  2  0  0  0  0
 47113  1  0  0  0  0
 48 49  1  0  0  0  0
 48114  1  0  0  0  0
 49 50  1  0  0  0  0
 51 52  1  0  0  0  0
 51 69  1  0  0  0  0
 52 53  2  0  0  0  0
 53 54  1  0  0  0  0
 53 68  1  0  0  0  0
 54 55  1  0  0  0  0
 54 63  2  0  0  0  0
 55 56  1  0  0  0  0
 55 61  2  0  0  0  0
 56 57  1  0  0  0  0
 56 58  2  0  0  0  0
 58 59  1  0  0  0  0
 58115  1  0  0  0  0
 59 60  2  0  0  0  0
 59116  1  0  0  0  0
 60 61  1  0  0  0  0
 60117  1  0  0  0  0
 61 62  1  0  0  0  0
 63 64  1  0  0  0  0
 63 67  1  0  0  0  0
 64 65  2  0  0  0  0
 64118  1  0  0  0  0
 65 66  1  0  0  0  0
 65119  1  0  0  0  0
 66 67  1  0  0  0  0
 67120  1  0  0  0  0
 68 69  2  0  0  0  0
 68121  1  0  0  0  0
 69122  1  0  0  0  0
 70 71  2  0  0  0  0
 70123  1  0  0  0  0
 71124  1  0  0  0  0
 72 73  1  0  0  0  0
 72125  1  0  0  0  0
 73126  1  0  0  0  0
 74 75  2  0  0  0  0
 74 76  1  0  0  0  0
 76 77  2  0  0  0  0
 76 80  1  0  0  0  0
 77 78  1  0  0  0  0
 77127  1  0  0  0  0
 78 79  2  0  0  0  0
 78 84  1  0  0  0  0
 79 80  1  0  0  0  0
 79 81  1  0  0  0  0
 81 82  1  0  0  0  0
 81128  1  0  0  0  0
 81129  1  0  0  0  0
 82 83  1  0  0  0  0
 82130  1  0  0  0  0
 82131  1  0  0  0  0
 83 84  1  0  0  0  0
 84132  1  0  0  0  0
 84133  1  0  0  0  0
 85 86  1  0  0  0  0
 85134  1  0  0  0  0
 86135  1  0  0  0  0
M  END
$$$$
