1_5_1201
 OpenBabel04152301363D

153165  0  0  0  0  0  0  0  0999 V2000
    1.0989    1.8426   -0.6892 C   0  0  0  0  0  0  0  0  0  0  0  0
    0.3820    1.2570   -1.7746 O   0  0  0  0  0  0  0  0  0  0  0  0
    1.0179    0.6929   -2.8399 C   0  0  0  0  0  0  0  0  0  0  0  0
    0.1832    0.4796   -3.9402 C   0  0  0  0  0  0  0  0  0  0  0  0
    0.7075    0.1499   -5.1920 C   0  0  0  0  0  0  0  0  0  0  0  0
    2.0819    0.0626   -5.3640 C   0  0  0  0  0  0  0  0  0  0  0  0
    2.8983    0.0993   -4.2431 C   0  0  0  0  0  0  0  0  0  0  0  0
    2.3388    0.2978   -2.9677 C   0  0  0  0  0  0  0  0  0  0  0  0
    3.2184   -0.0278   -1.8558 C   0  0  0  0  0  0  0  0  0  0  0  0
    4.4131    0.2737   -1.9243 O   0  0  0  0  0  0  0  0  0  0  0  0
    2.8304   -0.7178   -0.7529 N   0  0  0  0  0  0  0  0  0  0  0  0
    1.7480   -1.4040   -0.2232 C   0  0  0  0  0  0  0  0  0  0  0  0
    2.1587   -2.1007    0.8699 C   0  0  0  0  0  0  0  0  0  0  0  0
    1.2992   -2.8230    1.7985 C   0  0  0  0  0  0  0  0  0  0  0  0
    0.9011   -1.7407    2.7058 C   0  0  0  0  0  0  0  0  0  0  0  0
   -0.3677   -1.2660    2.6584 C   0  0  0  0  0  0  0  0  0  0  0  0
   -1.1979   -2.1891    2.0295 C   0  0  0  0  0  0  0  0  0  0  0  0
   -0.6941   -3.7986    1.4945 C   0  0  0  0  0  0  0  0  0  0  0  0
    0.6119   -3.9851    1.2989 C   0  0  0  0  0  0  0  0  0  0  0  0
   -2.0482   -4.7171    0.7533 O   0  0  0  0  0  0  0  0  0  0  0  0
   -3.6827   -3.7288    0.7647 C   0  0  0  0  0  0  0  0  0  0  0  0
   -3.1647   -2.0256    1.5722 O   0  0  0  0  0  0  0  0  0  0  0  0
    0.3279   -1.5608   -0.8885 C   0  0  0  0  0  0  0  0  0  0  0  0
    0.2040   -2.3731   -1.8090 O   0  0  0  0  0  0  0  0  0  0  0  0
   -0.7434   -0.6929   -0.5697 N   0  0  0  0  0  0  0  0  0  0  0  0
   -1.9237   -1.0719    0.1863 C   0  0  0  0  0  0  0  0  0  0  0  0
   -2.0733   -2.7307    0.4277 C   0  0  0  0  0  0  0  0  0  0  0  0
   -2.5526   -3.4708    2.3012 C   0  0  0  0  0  0  0  0  0  0  0  0
   -2.7791   -2.3110    3.5449 C   0  0  0  0  0  0  0  0  0  0  0  0
   -2.4669   -2.7629    4.9286 C   0  0  0  0  0  0  0  0  0  0  0  0
   -2.2715   -3.9233    5.2430 O   0  0  0  0  0  0  0  0  0  0  0  0
   -2.6094   -1.7039    5.7519 O   0  0  0  0  0  0  0  0  0  0  0  0
   -2.8804   -1.9918    7.1222 C   0  0  0  0  0  0  0  0  0  0  0  0
   -4.3704   -1.9953    7.5517 C   0  0  0  0  0  0  0  0  0  0  0  0
   -5.5062   -2.0120    6.6961 O   0  0  0  0  0  0  0  0  0  0  0  0
   -5.3451   -1.9284    5.3040 C   0  0  0  0  0  0  0  0  0  0  0  0
   -5.0471   -0.5423    4.7237 C   0  0  0  0  0  0  0  0  0  0  0  0
   -4.3625    0.3851    5.5188 O   0  0  0  0  0  0  0  0  0  0  0  0
   -5.2038    1.0588    6.4473 C   0  0  0  0  0  0  0  0  0  0  0  0
   -6.7753    0.9819    6.4091 C   0  0  0  0  0  0  0  0  0  0  0  0
   -7.4757   -0.0423    5.6379 O   0  0  0  0  0  0  0  0  0  0  0  0
   -7.8726    0.2511    4.3570 C   0  0  0  0  0  0  0  0  0  0  0  0
   -7.7769    1.3347    3.8058 O   0  0  0  0  0  0  0  0  0  0  0  0
   -8.1703   -1.0131    3.6081 C   0  0  0  0  0  0  0  0  0  0  0  0
   -7.3319   -1.5222    2.5832 C   0  0  0  0  0  0  0  0  0  0  0  0
   -7.6790   -2.6871    1.8765 C   0  0  0  0  0  0  0  0  0  0  0  0
   -8.9010   -3.3091    2.1431 C   0  0  0  0  0  0  0  0  0  0  0  0
   -9.4843   -4.3456    1.2497 C   0  0  0  0  0  0  0  0  0  0  0  0
  -10.6278   -3.9387    0.3588 C   0  0  0  0  0  0  0  0  0  0  0  0
  -11.4654   -4.6823   -0.3153 N   0  0  0  0  0  0  0  0  0  0  0  0
  -12.3476   -3.7964   -0.9211 C   0  0  0  0  0  0  0  0  0  0  0  0
  -13.3744   -4.0678   -1.7606 C   0  0  0  0  0  0  0  0  0  0  0  0
  -14.1729   -2.9084   -2.2831 C   0  0  0  0  0  0  0  0  0  0  0  0
  -13.6186   -1.9607   -3.1538 C   0  0  0  0  0  0  0  0  0  0  0  0
  -12.3297   -2.0428   -3.5183 F   0  0  0  0  0  0  0  0  0  0  0  0
  -14.3665   -0.8856   -3.6353 C   0  0  0  0  0  0  0  0  0  0  0  0
  -15.7111   -0.7646   -3.2915 C   0  0  0  0  0  0  0  0  0  0  0  0
  -16.2940   -1.7125   -2.4537 C   0  0  0  0  0  0  0  0  0  0  0  0
  -15.5245   -2.7589   -1.9447 C   0  0  0  0  0  0  0  0  0  0  0  0
  -16.1257   -3.6375   -1.1280 F   0  0  0  0  0  0  0  0  0  0  0  0
  -13.7564   -5.3951   -2.1603 C   0  0  0  0  0  0  0  0  0  0  0  0
  -14.7809   -5.7752   -3.0086 C   0  0  0  0  0  0  0  0  0  0  0  0
  -14.8361   -7.1695   -3.0258 C   0  0  0  0  0  0  0  0  0  0  0  0
  -13.7803   -7.6575   -2.2733 C   0  0  0  0  0  0  0  0  0  0  0  0
  -13.1386   -6.5586   -1.7294 N   0  0  0  0  0  0  0  0  0  0  0  0
  -13.3869   -9.0285   -2.0725 C   0  0  0  0  0  0  0  0  0  0  0  0
  -14.1578  -10.0813   -2.8198 C   0  0  0  0  0  0  0  0  0  0  0  0
  -14.9874  -11.0098   -2.1808 C   0  0  0  0  0  0  0  0  0  0  0  0
  -15.0646  -11.0471   -0.8419 F   0  0  0  0  0  0  0  0  0  0  0  0
  -15.7379  -11.9374   -2.9071 C   0  0  0  0  0  0  0  0  0  0  0  0
  -15.7067  -11.9233   -4.3008 C   0  0  0  0  0  0  0  0  0  0  0  0
  -14.9035  -10.9968   -4.9596 C   0  0  0  0  0  0  0  0  0  0  0  0
  -14.1262  -10.1043   -4.2225 C   0  0  0  0  0  0  0  0  0  0  0  0
  -13.3647   -9.2326   -4.9017 F   0  0  0  0  0  0  0  0  0  0  0  0
  -12.3440   -9.4242   -1.3026 C   0  0  0  0  0  0  0  0  0  0  0  0
  -11.4298   -8.6452   -0.5999 N   0  0  0  0  0  0  0  0  0  0  0  0
  -10.6038   -9.4868   -0.0258 C   0  0  0  0  0  0  0  0  0  0  0  0
   -9.3793   -9.2018    0.8136 C   0  0  0  0  0  0  0  0  0  0  0  0
   -8.5782  -10.3315    1.3614 C   0  0  0  0  0  0  0  0  0  0  0  0
   -7.9233  -11.2303    0.5086 C   0  0  0  0  0  0  0  0  0  0  0  0
   -7.9725  -11.0562   -0.8207 F   0  0  0  0  0  0  0  0  0  0  0  0
   -7.2660  -12.3612    0.9964 C   0  0  0  0  0  0  0  0  0  0  0  0
   -7.2055  -12.5907    2.3686 C   0  0  0  0  0  0  0  0  0  0  0  0
   -7.8092  -11.6882    3.2413 C   0  0  0  0  0  0  0  0  0  0  0  0
   -8.5007  -10.5850    2.7365 C   0  0  0  0  0  0  0  0  0  0  0  0
   -9.0985   -9.7648    3.6132 F   0  0  0  0  0  0  0  0  0  0  0  0
   -9.0349   -7.9226    1.0703 C   0  0  0  0  0  0  0  0  0  0  0  0
   -7.9168   -7.4884    1.9071 C   0  0  0  0  0  0  0  0  0  0  0  0
   -7.9701   -6.1533    2.0626 C   0  0  0  0  0  0  0  0  0  0  0  0
   -9.0923   -5.6320    1.2884 C   0  0  0  0  0  0  0  0  0  0  0  0
   -9.6313   -6.7446    0.6845 N   0  0  0  0  0  0  0  0  0  0  0  0
  -10.9458  -10.9004   -0.2534 C   0  0  0  0  0  0  0  0  0  0  0  0
  -11.9761  -10.8046   -1.0810 C   0  0  0  0  0  0  0  0  0  0  0  0
  -11.9713   -2.4653   -0.4984 C   0  0  0  0  0  0  0  0  0  0  0  0
  -10.8718   -2.4913    0.2381 C   0  0  0  0  0  0  0  0  0  0  0  0
   -9.7079   -2.8136    3.1869 C   0  0  0  0  0  0  0  0  0  0  0  0
   -9.3421   -1.6837    3.9214 C   0  0  0  0  0  0  0  0  0  0  0  0
   -2.7194   -0.6467    3.0619 C   0  0  0  0  0  0  0  0  0  0  0  0
   -2.3611   -0.0667    1.4626 C   0  0  0  0  0  0  0  0  0  0  0  0
    0.4060    2.2225    0.0322 H   0  0  0  0  0  0  0  0  0  0  0  0
    1.7081    2.6428   -1.0545 H   0  0  0  0  0  0  0  0  0  0  0  0
    1.7203    1.1017   -0.2312 H   0  0  0  0  0  0  0  0  0  0  0  0
   -0.8387    0.5673   -3.8258 H   0  0  0  0  0  0  0  0  0  0  0  0
    0.0744   -0.0284   -5.9872 H   0  0  0  0  0  0  0  0  0  0  0  0
    2.4889   -0.0279   -6.3080 H   0  0  0  0  0  0  0  0  0  0  0  0
    3.9184   -0.0193   -4.3450 H   0  0  0  0  0  0  0  0  0  0  0  0
    3.5730   -0.7380   -0.1068 H   0  0  0  0  0  0  0  0  0  0  0  0
    3.1730   -2.1196    1.0593 H   0  0  0  0  0  0  0  0  0  0  0  0
    1.5807   -1.3446    3.3738 H   0  0  0  0  0  0  0  0  0  0  0  0
   -0.6731   -0.3543    3.0334 H   0  0  0  0  0  0  0  0  0  0  0  0
    1.0508   -4.8134    0.8671 H   0  0  0  0  0  0  0  0  0  0  0  0
   -4.4264   -4.2230    1.3542 H   0  0  0  0  0  0  0  0  0  0  0  0
   -4.1149   -3.6191   -0.2080 H   0  0  0  0  0  0  0  0  0  0  0  0
   -0.6839    0.2381   -0.8842 H   0  0  0  0  0  0  0  0  0  0  0  0
   -1.9258   -3.3808   -0.3601 H   0  0  0  0  0  0  0  0  0  0  0  0
   -2.6500   -4.4830    2.4774 H   0  0  0  0  0  0  0  0  0  0  0  0
   -2.3741   -1.2580    7.7139 H   0  0  0  0  0  0  0  0  0  0  0  0
   -2.5427   -2.9962    7.2706 H   0  0  0  0  0  0  0  0  0  0  0  0
   -4.4876   -1.1152    8.1488 H   0  0  0  0  0  0  0  0  0  0  0  0
   -4.4348   -2.9889    7.9435 H   0  0  0  0  0  0  0  0  0  0  0  0
   -6.2487   -2.2808    4.8521 H   0  0  0  0  0  0  0  0  0  0  0  0
   -4.4764   -2.5145    5.0876 H   0  0  0  0  0  0  0  0  0  0  0  0
   -5.9864   -0.1012    4.4628 H   0  0  0  0  0  0  0  0  0  0  0  0
   -4.3751   -0.7378    3.9143 H   0  0  0  0  0  0  0  0  0  0  0  0
   -4.9596    2.0972    6.3633 H   0  0  0  0  0  0  0  0  0  0  0  0
   -4.9902    0.5240    7.3491 H   0  0  0  0  0  0  0  0  0  0  0  0
   -7.1136    1.9250    6.0336 H   0  0  0  0  0  0  0  0  0  0  0  0
   -7.0145    0.7117    7.4164 H   0  0  0  0  0  0  0  0  0  0  0  0
   -6.4544   -1.0303    2.3530 H   0  0  0  0  0  0  0  0  0  0  0  0
   -7.0380   -3.0783    1.1686 H   0  0  0  0  0  0  0  0  0  0  0  0
  -13.9240   -0.1807   -4.2455 H   0  0  0  0  0  0  0  0  0  0  0  0
  -16.2715    0.0220   -3.6551 H   0  0  0  0  0  0  0  0  0  0  0  0
  -17.2942   -1.6408   -2.2097 H   0  0  0  0  0  0  0  0  0  0  0  0
  -15.3974   -5.1382   -3.5370 H   0  0  0  0  0  0  0  0  0  0  0  0
  -15.5430   -7.7399   -3.5156 H   0  0  0  0  0  0  0  0  0  0  0  0
  -12.3607   -6.5974   -1.1273 H   0  0  0  0  0  0  0  0  0  0  0  0
  -16.3161  -12.6339   -2.4115 H   0  0  0  0  0  0  0  0  0  0  0  0
  -16.2750  -12.5949   -4.8402 H   0  0  0  0  0  0  0  0  0  0  0  0
  -14.8834  -10.9705   -5.9911 H   0  0  0  0  0  0  0  0  0  0  0  0
   -6.8257  -13.0260    0.3412 H   0  0  0  0  0  0  0  0  0  0  0  0
   -6.7175  -13.4225    2.7359 H   0  0  0  0  0  0  0  0  0  0  0  0
   -7.7454  -11.8349    4.2608 H   0  0  0  0  0  0  0  0  0  0  0  0
   -7.1996   -8.1088    2.3143 H   0  0  0  0  0  0  0  0  0  0  0  0
   -7.3231   -5.5895    2.6358 H   0  0  0  0  0  0  0  0  0  0  0  0
  -10.3727   -6.7017    0.0382 H   0  0  0  0  0  0  0  0  0  0  0  0
  -10.4988  -11.7470    0.1319 H   0  0  0  0  0  0  0  0  0  0  0  0
  -12.4543  -11.6113   -1.5118 H   0  0  0  0  0  0  0  0  0  0  0  0
  -12.4920   -1.6075   -0.7395 H   0  0  0  0  0  0  0  0  0  0  0  0
  -10.3284   -1.7043    0.6258 H   0  0  0  0  0  0  0  0  0  0  0  0
  -10.5906   -3.2976    3.4140 H   0  0  0  0  0  0  0  0  0  0  0  0
   -9.9407   -1.3500    4.6929 H   0  0  0  0  0  0  0  0  0  0  0  0
   -2.9135    0.0614    3.7871 H   0  0  0  0  0  0  0  0  0  0  0  0
   -2.4199    0.9485    1.2867 H   0  0  0  0  0  0  0  0  0  0  0  0
  1  2  1  0  0  0  0
  1100  1  0  0  0  0
  1101  1  0  0  0  0
  1102  1  0  0  0  0
  2  3  1  0  0  0  0
  3  4  1  0  0  0  0
  3  8  2  0  0  0  0
  4  5  2  0  0  0  0
  4103  1  0  0  0  0
  5  6  1  0  0  0  0
  5104  1  0  0  0  0
  6  7  2  0  0  0  0
  6105  1  0  0  0  0
  7  8  1  0  0  0  0
  7106  1  0  0  0  0
  8  9  1  0  0  0  0
  9 10  2  0  0  0  0
  9 11  1  0  0  0  0
 11 12  1  0  0  0  0
 11107  1  0  0  0  0
 12 13  2  0  0  0  0
 12 23  1  0  0  0  0
 13 14  1  0  0  0  0
 13108  1  0  0  0  0
 14 15  1  0  0  0  0
 14 19  2  0  0  0  0
 15 16  2  0  0  0  0
 15109  1  0  0  0  0
 16 17  1  0  0  0  0
 16110  1  0  0  0  0
 17 18  2  0  0  0  0
 17 22  1  0  0  0  0
 18 19  1  0  0  0  0
 18 20  1  0  0  0  0
 19111  1  0  0  0  0
 20 21  1  0  0  0  0
 21 22  1  0  0  0  0
 21112  1  0  0  0  0
 21113  1  0  0  0  0
 23 24  2  0  0  0  0
 23 25  1  0  0  0  0
 25 26  1  0  0  0  0
 25114  1  0  0  0  0
 26 27  1  0  0  0  0
 26 99  2  0  0  0  0
 27 28  2  0  0  0  0
 27115  1  0  0  0  0
 28 29  1  0  0  0  0
 28116  1  0  0  0  0
 29 30  1  0  0  0  0
 29 98  2  0  0  0  0
 30 31  2  0  0  0  0
 30 32  1  0  0  0  0
 32 33  1  0  0  0  0
 33 34  1  0  0  0  0
 33117  1  0  0  0  0
 33118  1  0  0  0  0
 34 35  1  0  0  0  0
 34119  1  0  0  0  0
 34120  1  0  0  0  0
 35 36  1  0  0  0  0
 36 37  1  0  0  0  0
 36121  1  0  0  0  0
 36122  1  0  0  0  0
 37 38  1  0  0  0  0
 37123  1  0  0  0  0
 37124  1  0  0  0  0
 38 39  1  0  0  0  0
 39 40  1  0  0  0  0
 39125  1  0  0  0  0
 39126  1  0  0  0  0
 40 41  1  0  0  0  0
 40127  1  0  0  0  0
 40128  1  0  0  0  0
 41 42  1  0  0  0  0
 42 43  2  0  0  0  0
 42 44  1  0  0  0  0
 44 45  1  0  0  0  0
 44 97  2  0  0  0  0
 45 46  2  0  0  0  0
 45129  1  0  0  0  0
 46 47  1  0  0  0  0
 46130  1  0  0  0  0
 47 48  1  0  0  0  0
 47 96  2  0  0  0  0
 48 49  1  0  0  0  0
 48 90  2  0  0  0  0
 49 50  2  0  0  0  0
 49 95  1  0  0  0  0
 50 51  1  0  0  0  0
 51 52  2  0  0  0  0
 51 94  1  0  0  0  0
 52 53  1  0  0  0  0
 52 61  1  0  0  0  0
 53 54  1  0  0  0  0
 53 59  2  0  0  0  0
 54 55  1  0  0  0  0
 54 56  2  0  0  0  0
 56 57  1  0  0  0  0
 56131  1  0  0  0  0
 57 58  2  0  0  0  0
 57132  1  0  0  0  0
 58 59  1  0  0  0  0
 58133  1  0  0  0  0
 59 60  1  0  0  0  0
 61 62  2  0  0  0  0
 61 65  1  0  0  0  0
 62 63  1  0  0  0  0
 62134  1  0  0  0  0
 63 64  2  0  0  0  0
 63135  1  0  0  0  0
 64 65  1  0  0  0  0
 64 66  1  0  0  0  0
 65136  1  0  0  0  0
 66 67  1  0  0  0  0
 66 75  2  0  0  0  0
 67 68  1  0  0  0  0
 67 73  2  0  0  0  0
 68 69  1  0  0  0  0
 68 70  2  0  0  0  0
 70 71  1  0  0  0  0
 70137  1  0  0  0  0
 71 72  2  0  0  0  0
 71138  1  0  0  0  0
 72 73  1  0  0  0  0
 72139  1  0  0  0  0
 73 74  1  0  0  0  0
 75 76  1  0  0  0  0
 75 93  1  0  0  0  0
 76 77  2  0  0  0  0
 77 78  1  0  0  0  0
 77 92  1  0  0  0  0
 78 79  1  0  0  0  0
 78 87  2  0  0  0  0
 79 80  1  0  0  0  0
 79 85  2  0  0  0  0
 80 81  1  0  0  0  0
 80 82  2  0  0  0  0
 82 83  1  0  0  0  0
 82140  1  0  0  0  0
 83 84  2  0  0  0  0
 83141  1  0  0  0  0
 84 85  1  0  0  0  0
 84142  1  0  0  0  0
 85 86  1  0  0  0  0
 87 88  1  0  0  0  0
 87 91  1  0  0  0  0
 88 89  2  0  0  0  0
 88143  1  0  0  0  0
 89 90  1  0  0  0  0
 89144  1  0  0  0  0
 90 91  1  0  0  0  0
 91145  1  0  0  0  0
 92 93  2  0  0  0  0
 92146  1  0  0  0  0
 93147  1  0  0  0  0
 94 95  2  0  0  0  0
 94148  1  0  0  0  0
 95149  1  0  0  0  0
 96 97  1  0  0  0  0
 96150  1  0  0  0  0
 97151  1  0  0  0  0
 98 99  1  0  0  0  0
 98152  1  0  0  0  0
 99153  1  0  0  0  0
M  END
$$$$
