1_5_7014
 OpenBabel04152301363D

134144  0  0  1  0  0  0  0  0999 V2000
    0.8559    0.0293    0.0391 C   0  0  0  0  0  0  0  0  0  0  0  0
    0.3720    0.7762    1.2723 C   0  0  2  0  0  0  0  0  0  0  0  0
    0.3322    2.2982    1.0672 C   0  0  0  0  0  0  0  0  0  0  0  0
    0.5209    2.8499    2.4183 N   0  0  0  0  0  0  0  0  0  0  0  0
    0.7699    4.1976    2.5643 C   0  0  0  0  0  0  0  0  0  0  0  0
   -0.1228    5.0967    1.9432 C   0  0  0  0  0  0  0  0  0  0  0  0
    0.0641    6.4852    1.9523 C   0  0  0  0  0  0  0  0  0  0  0  0
    1.1519    7.0471    2.6043 C   0  0  0  0  0  0  0  0  0  0  0  0
    1.4191    8.4014    2.4966 N   0  0  0  0  0  0  0  0  0  0  0  0
    2.0470    6.1888    3.2351 C   0  0  0  0  0  0  0  0  0  0  0  0
    1.8589    4.7847    3.2385 C   0  0  0  0  0  0  0  0  0  0  0  0
    2.9598    4.0469    3.9048 C   0  0  0  0  0  0  0  0  0  0  0  0
    3.4010    4.3729    4.9966 O   0  0  0  0  0  0  0  0  0  0  0  0
    3.4980    3.1223    3.0708 O   0  0  0  0  0  0  0  0  0  0  0  0
    4.7280    2.5176    3.4969 C   0  0  0  0  0  0  0  0  0  0  0  0
    5.8005    2.5035    2.4007 C   0  0  0  0  0  0  0  0  0  0  0  0
    6.1709    3.7204    1.7612 O   0  0  0  0  0  0  0  0  0  0  0  0
    5.1477    4.6167    1.3515 C   0  0  0  0  0  0  0  0  0  0  0  0
    4.0461    4.1294    0.3839 C   0  0  0  0  0  0  0  0  0  0  0  0
    4.0011    2.7510    0.1038 O   0  0  0  0  0  0  0  0  0  0  0  0
    4.8103    2.1874   -0.9128 C   0  0  0  0  0  0  0  0  0  0  0  0
    5.8584    2.9291   -1.7673 C   0  0  0  0  0  0  0  0  0  0  0  0
    6.1856    4.2769   -1.4290 O   0  0  0  0  0  0  0  0  0  0  0  0
    5.6437    5.2301   -2.2269 C   0  0  0  0  0  0  0  0  0  0  0  0
    4.8900    5.0703   -3.1682 O   0  0  0  0  0  0  0  0  0  0  0  0
    5.9759    6.5521   -1.6639 C   0  0  0  0  0  0  0  0  0  0  0  0
    4.9398    7.3488   -1.1586 C   0  0  0  0  0  0  0  0  0  0  0  0
    5.2187    8.6229   -0.6658 C   0  0  0  0  0  0  0  0  0  0  0  0
    6.5282    9.1183   -0.7164 C   0  0  0  0  0  0  0  0  0  0  0  0
    6.7848   10.5554   -0.4580 C   0  0  0  0  0  0  0  0  0  0  0  0
    6.9038   11.4828   -1.6360 C   0  0  0  0  0  0  0  0  0  0  0  0
    7.1952   12.7577   -1.6658 N   0  0  0  0  0  0  0  0  0  0  0  0
    7.1809   13.1146   -3.0083 C   0  0  0  0  0  0  0  0  0  0  0  0
    7.3876   14.3326   -3.5618 C   0  0  0  0  0  0  0  0  0  0  0  0
    7.3189   14.4326   -5.0574 C   0  0  0  0  0  0  0  0  0  0  0  0
    6.1074   14.3227   -5.7523 C   0  0  0  0  0  0  0  0  0  0  0  0
    4.9652   14.0748   -5.0932 F   0  0  0  0  0  0  0  0  0  0  0  0
    6.0518   14.4291   -7.1431 C   0  0  0  0  0  0  0  0  0  0  0  0
    7.2143   14.6826   -7.8686 C   0  0  0  0  0  0  0  0  0  0  0  0
    8.4284   14.8116   -7.1974 C   0  0  0  0  0  0  0  0  0  0  0  0
    8.4754   14.6752   -5.8094 C   0  0  0  0  0  0  0  0  0  0  0  0
    9.6679   14.7943   -5.2065 F   0  0  0  0  0  0  0  0  0  0  0  0
    7.6889   15.5221   -2.8107 C   0  0  0  0  0  0  0  0  0  0  0  0
    7.9037   16.8060   -3.2800 C   0  0  0  0  0  0  0  0  0  0  0  0
    8.2245   17.6211   -2.1902 C   0  0  0  0  0  0  0  0  0  0  0  0
    8.1497   16.8583   -1.0360 C   0  0  0  0  0  0  0  0  0  0  0  0
    7.8273   15.5708   -1.4321 N   0  0  0  0  0  0  0  0  0  0  0  0
    8.3619   17.2710    0.3281 C   0  0  0  0  0  0  0  0  0  0  0  0
    8.6950   18.7147    0.5777 C   0  0  0  0  0  0  0  0  0  0  0  0
    9.9680   19.1238    0.9944 C   0  0  0  0  0  0  0  0  0  0  0  0
   10.9268   18.2183    1.2404 F   0  0  0  0  0  0  0  0  0  0  0  0
   10.2707   20.4717    1.1989 C   0  0  0  0  0  0  0  0  0  0  0  0
    9.3062   21.4477    0.9545 C   0  0  0  0  0  0  0  0  0  0  0  0
    8.0384   21.0661    0.5219 C   0  0  0  0  0  0  0  0  0  0  0  0
    7.7389   19.7140    0.3500 C   0  0  0  0  0  0  0  0  0  0  0  0
    6.5028   19.3936   -0.0619 F   0  0  0  0  0  0  0  0  0  0  0  0
    8.2552   16.4562    1.4068 C   0  0  0  0  0  0  0  0  0  0  0  0
    7.9203   15.1075    1.4571 N   0  0  0  0  0  0  0  0  0  0  0  0
    7.9618   14.7718    2.7242 C   0  0  0  0  0  0  0  0  0  0  0  0
    7.6558   13.4439    3.3704 C   0  0  0  0  0  0  0  0  0  0  0  0
    7.7669   13.2847    4.8438 C   0  0  0  0  0  0  0  0  0  0  0  0
    6.8898   13.9421    5.7144 C   0  0  0  0  0  0  0  0  0  0  0  0
    5.9156   14.7246    5.2270 F   0  0  0  0  0  0  0  0  0  0  0  0
    7.0288   13.8508    7.1007 C   0  0  0  0  0  0  0  0  0  0  0  0
    8.0408   13.0644    7.6477 C   0  0  0  0  0  0  0  0  0  0  0  0
    8.9124   12.3821    6.8016 C   0  0  0  0  0  0  0  0  0  0  0  0
    8.7794   12.5058    5.4177 C   0  0  0  0  0  0  0  0  0  0  0  0
    9.6548   11.8522    4.6399 F   0  0  0  0  0  0  0  0  0  0  0  0
    7.3005   12.3971    2.5994 C   0  0  0  0  0  0  0  0  0  0  0  0
    6.9830   11.0509    3.0744 C   0  0  0  0  0  0  0  0  0  0  0  0
    6.7691   10.2474    2.0171 C   0  0  0  0  0  0  0  0  0  0  0  0
    6.9027   11.0335    0.7929 C   0  0  0  0  0  0  0  0  0  0  0  0
    7.1787   12.3041    1.2346 N   0  0  0  0  0  0  0  0  0  0  0  0
    8.3624   15.8686    3.6186 C   0  0  0  0  0  0  0  0  0  0  0  0
    8.4846   16.8805    2.7714 C   0  0  0  0  0  0  0  0  0  0  0  0
    6.8842   11.9174   -3.7639 C   0  0  0  0  0  0  0  0  0  0  0  0
    6.6649   10.8874   -2.9612 C   0  0  0  0  0  0  0  0  0  0  0  0
    7.5681    8.2949   -1.1865 C   0  0  0  0  0  0  0  0  0  0  0  0
    7.2941    7.0090   -1.6589 C   0  0  0  0  0  0  0  0  0  0  0  0
    0.8099    1.7918    3.3794 C   0  0  0  0  0  0  0  0  0  0  0  0
    1.2950    0.6391    2.4903 C   0  0  1  0  0  0  0  0  0  0  0  0
    1.2316   -0.7086    3.1843 C   0  0  0  0  0  0  0  0  0  0  0  0
    0.1609    0.1746   -0.7614 H   0  0  0  0  0  0  0  0  0  0  0  0
    0.9311   -1.0147    0.2611 H   0  0  0  0  0  0  0  0  0  0  0  0
    1.8161    0.4025   -0.2500 H   0  0  0  0  0  0  0  0  0  0  0  0
   -0.5893    0.3350    1.4342 H   0  0  0  0  0  0  0  0  0  0  0  0
   -0.6102    2.6019    0.6616 H   0  0  0  0  0  0  0  0  0  0  0  0
    1.0767    2.6384    0.3781 H   0  0  0  0  0  0  0  0  0  0  0  0
   -0.9508    4.7142    1.4604 H   0  0  0  0  0  0  0  0  0  0  0  0
   -0.6137    7.0955    1.4695 H   0  0  0  0  0  0  0  0  0  0  0  0
    0.7757    8.9959    2.0473 H   0  0  0  0  0  0  0  0  0  0  0  0
    2.2525    8.7699    2.8693 H   0  0  0  0  0  0  0  0  0  0  0  0
    2.8706    6.5859    3.7137 H   0  0  0  0  0  0  0  0  0  0  0  0
    4.5278    1.5085    3.7910 H   0  0  0  0  0  0  0  0  0  0  0  0
    5.1077    3.1025    4.3085 H   0  0  0  0  0  0  0  0  0  0  0  0
    5.4520    1.8435    1.6340 H   0  0  0  0  0  0  0  0  0  0  0  0
    6.6885    2.2166    2.9243 H   0  0  0  0  0  0  0  0  0  0  0  0
    5.6320    5.4453    0.8784 H   0  0  0  0  0  0  0  0  0  0  0  0
    4.6138    4.8163    2.2570 H   0  0  0  0  0  0  0  0  0  0  0  0
    4.1833    4.6425   -0.5450 H   0  0  0  0  0  0  0  0  0  0  0  0
    3.1248    4.3395    0.8859 H   0  0  0  0  0  0  0  0  0  0  0  0
    4.1215    1.7705   -1.6175 H   0  0  0  0  0  0  0  0  0  0  0  0
    5.4629    1.5912   -0.3098 H   0  0  0  0  0  0  0  0  0  0  0  0
    5.4970    2.9355   -2.7744 H   0  0  0  0  0  0  0  0  0  0  0  0
    6.7657    2.3890   -1.5943 H   0  0  0  0  0  0  0  0  0  0  0  0
    3.9712    6.9928   -1.1512 H   0  0  0  0  0  0  0  0  0  0  0  0
    4.4625    9.1995   -0.2648 H   0  0  0  0  0  0  0  0  0  0  0  0
    5.1504   14.3201   -7.6337 H   0  0  0  0  0  0  0  0  0  0  0  0
    7.1762   14.7741   -8.8958 H   0  0  0  0  0  0  0  0  0  0  0  0
    9.2925   15.0079   -7.7264 H   0  0  0  0  0  0  0  0  0  0  0  0
    7.8384   17.1094   -4.2642 H   0  0  0  0  0  0  0  0  0  0  0  0
    8.4746   18.6212   -2.2375 H   0  0  0  0  0  0  0  0  0  0  0  0
    7.7134   14.8042   -0.8249 H   0  0  0  0  0  0  0  0  0  0  0  0
   11.2087   20.7452    1.5311 H   0  0  0  0  0  0  0  0  0  0  0  0
    9.5297   22.4456    1.0930 H   0  0  0  0  0  0  0  0  0  0  0  0
    7.3212   21.7826    0.3287 H   0  0  0  0  0  0  0  0  0  0  0  0
    6.3827   14.3652    7.7196 H   0  0  0  0  0  0  0  0  0  0  0  0
    8.1439   12.9880    8.6717 H   0  0  0  0  0  0  0  0  0  0  0  0
    9.6557   11.7858    7.1977 H   0  0  0  0  0  0  0  0  0  0  0  0
    6.9313   10.7630    4.0641 H   0  0  0  0  0  0  0  0  0  0  0  0
    6.5470    9.2406    2.0631 H   0  0  0  0  0  0  0  0  0  0  0  0
    7.2796   13.0749    0.6305 H   0  0  0  0  0  0  0  0  0  0  0  0
    8.5099   15.8540    4.6399 H   0  0  0  0  0  0  0  0  0  0  0  0
    8.7140   17.8475    3.0493 H   0  0  0  0  0  0  0  0  0  0  0  0
    6.8481   11.8719   -4.7943 H   0  0  0  0  0  0  0  0  0  0  0  0
    6.3967    9.9203   -3.2016 H   0  0  0  0  0  0  0  0  0  0  0  0
    8.5395    8.6433   -1.1823 H   0  0  0  0  0  0  0  0  0  0  0  0
    8.0576    6.4043   -2.0001 H   0  0  0  0  0  0  0  0  0  0  0  0
   -0.0697    1.5147    3.9221 H   0  0  0  0  0  0  0  0  0  0  0  0
    1.5245    2.0807    4.1216 H   0  0  0  0  0  0  0  0  0  0  0  0
    2.3310    0.6906    2.2279 H   0  0  0  0  0  0  0  0  0  0  0  0
    0.2291   -0.8964    3.5078 H   0  0  0  0  0  0  0  0  0  0  0  0
    1.8849   -0.7045    4.0317 H   0  0  0  0  0  0  0  0  0  0  0  0
    1.5360   -1.4753    2.5029 H   0  0  0  0  0  0  0  0  0  0  0  0
  1  2  1  0  0  0  0
  1 83  1  0  0  0  0
  1 84  1  0  0  0  0
  1 85  1  0  0  0  0
  2  3  1  0  0  0  0
  2 81  1  0  0  0  0
  2 86  1  1  0  0  0
  3  4  1  0  0  0  0
  3 87  1  0  0  0  0
  3 88  1  0  0  0  0
  4  5  1  0  0  0  0
  4 80  1  0  0  0  0
  5  6  1  0  0  0  0
  5 11  2  0  0  0  0
  6  7  2  0  0  0  0
  6 89  1  0  0  0  0
  7  8  1  0  0  0  0
  7 90  1  0  0  0  0
  8  9  1  0  0  0  0
  8 10  2  0  0  0  0
  9 91  1  0  0  0  0
  9 92  1  0  0  0  0
 10 11  1  0  0  0  0
 10 93  1  0  0  0  0
 11 12  1  0  0  0  0
 12 13  2  0  0  0  0
 12 14  1  0  0  0  0
 14 15  1  0  0  0  0
 15 16  1  0  0  0  0
 15 94  1  0  0  0  0
 15 95  1  0  0  0  0
 16 17  1  0  0  0  0
 16 96  1  0  0  0  0
 16 97  1  0  0  0  0
 17 18  1  0  0  0  0
 18 19  1  0  0  0  0
 18 98  1  0  0  0  0
 18 99  1  0  0  0  0
 19 20  1  0  0  0  0
 19100  1  0  0  0  0
 19101  1  0  0  0  0
 20 21  1  0  0  0  0
 21 22  1  0  0  0  0
 21102  1  0  0  0  0
 21103  1  0  0  0  0
 22 23  1  0  0  0  0
 22104  1  0  0  0  0
 22105  1  0  0  0  0
 23 24  1  0  0  0  0
 24 25  2  0  0  0  0
 24 26  1  0  0  0  0
 26 27  1  0  0  0  0
 26 79  2  0  0  0  0
 27 28  2  0  0  0  0
 27106  1  0  0  0  0
 28 29  1  0  0  0  0
 28107  1  0  0  0  0
 29 30  1  0  0  0  0
 29 78  2  0  0  0  0
 30 31  1  0  0  0  0
 30 72  2  0  0  0  0
 31 32  2  0  0  0  0
 31 77  1  0  0  0  0
 32 33  1  0  0  0  0
 33 34  2  0  0  0  0
 33 76  1  0  0  0  0
 34 35  1  0  0  0  0
 34 43  1  0  0  0  0
 35 36  1  0  0  0  0
 35 41  2  0  0  0  0
 36 37  1  0  0  0  0
 36 38  2  0  0  0  0
 38 39  1  0  0  0  0
 38108  1  0  0  0  0
 39 40  2  0  0  0  0
 39109  1  0  0  0  0
 40 41  1  0  0  0  0
 40110  1  0  0  0  0
 41 42  1  0  0  0  0
 43 44  2  0  0  0  0
 43 47  1  0  0  0  0
 44 45  1  0  0  0  0
 44111  1  0  0  0  0
 45 46  2  0  0  0  0
 45112  1  0  0  0  0
 46 47  1  0  0  0  0
 46 48  1  0  0  0  0
 47113  1  0  0  0  0
 48 49  1  0  0  0  0
 48 57  2  0  0  0  0
 49 50  1  0  0  0  0
 49 55  2  0  0  0  0
 50 51  1  0  0  0  0
 50 52  2  0  0  0  0
 52 53  1  0  0  0  0
 52114  1  0  0  0  0
 53 54  2  0  0  0  0
 53115  1  0  0  0  0
 54 55  1  0  0  0  0
 54116  1  0  0  0  0
 55 56  1  0  0  0  0
 57 58  1  0  0  0  0
 57 75  1  0  0  0  0
 58 59  2  0  0  0  0
 59 60  1  0  0  0  0
 59 74  1  0  0  0  0
 60 61  1  0  0  0  0
 60 69  2  0  0  0  0
 61 62  1  0  0  0  0
 61 67  2  0  0  0  0
 62 63  1  0  0  0  0
 62 64  2  0  0  0  0
 64 65  1  0  0  0  0
 64117  1  0  0  0  0
 65 66  2  0  0  0  0
 65118  1  0  0  0  0
 66 67  1  0  0  0  0
 66119  1  0  0  0  0
 67 68  1  0  0  0  0
 69 70  1  0  0  0  0
 69 73  1  0  0  0  0
 70 71  2  0  0  0  0
 70120  1  0  0  0  0
 71 72  1  0  0  0  0
 71121  1  0  0  0  0
 72 73  1  0  0  0  0
 73122  1  0  0  0  0
 74 75  2  0  0  0  0
 74123  1  0  0  0  0
 75124  1  0  0  0  0
 76 77  2  0  0  0  0
 76125  1  0  0  0  0
 77126  1  0  0  0  0
 78 79  1  0  0  0  0
 78127  1  0  0  0  0
 79128  1  0  0  0  0
 80 81  1  0  0  0  0
 80129  1  0  0  0  0
 80130  1  0  0  0  0
 81 82  1  0  0  0  0
 81131  1  6  0  0  0
 82132  1  0  0  0  0
 82133  1  0  0  0  0
 82134  1  0  0  0  0
M  END
$$$$
