1_5_7647
 OpenBabel04152301363D

126136  0  0  1  0  0  0  0  0999 V2000
   -1.8510    0.2877    0.7818 O   0  0  0  0  0  0  0  0  0  0  0  0
   -0.6418    0.3050    0.6073 C   0  0  0  0  0  0  0  0  0  0  0  0
    0.2214   -0.6382    1.0773 N   0  0  0  0  0  0  0  0  0  0  0  0
    1.5596   -0.3676    0.6853 C   0  0  0  0  0  0  0  0  0  0  0  0
    1.4196    0.8714   -0.1785 C   0  0  1  0  0  0  0  0  0  0  0  0
    1.9196    0.7368   -1.6297 C   0  0  0  0  0  0  0  0  0  0  0  0
    0.7583    0.2102   -2.9677 S   0  0  0  0  0  0  0  0  0  0  0  0
    0.8130   -1.5734   -2.9562 C   0  0  0  0  0  0  0  0  0  0  0  0
    0.3118   -2.2818   -1.8710 C   0  0  0  0  0  0  0  0  0  0  0  0
    0.2910   -3.6615   -1.9062 C   0  0  0  0  0  0  0  0  0  0  0  0
    0.6564   -4.3735   -2.9822 N   0  0  0  0  0  0  0  0  0  0  0  0
    1.0442   -3.6753   -4.0836 C   0  0  0  0  0  0  0  0  0  0  0  0
    1.3345   -4.5338   -5.2766 C   0  0  0  0  0  0  0  0  0  0  0  0
    0.7019   -5.5321   -5.5813 O   0  0  0  0  0  0  0  0  0  0  0  0
    2.4961   -4.1337   -5.8504 O   0  0  0  0  0  0  0  0  0  0  0  0
    3.0396   -4.9960   -6.8647 C   0  0  0  0  0  0  0  0  0  0  0  0
    3.9567   -6.1389   -6.3801 C   0  0  0  0  0  0  0  0  0  0  0  0
    4.8154   -5.9068   -5.2739 O   0  0  0  0  0  0  0  0  0  0  0  0
    4.1850   -5.5640   -4.0530 C   0  0  0  0  0  0  0  0  0  0  0  0
    4.4836   -4.1150   -3.6148 C   0  0  0  0  0  0  0  0  0  0  0  0
    5.1519   -3.2222   -4.4920 O   0  0  0  0  0  0  0  0  0  0  0  0
    6.3304   -3.6573   -5.1601 C   0  0  0  0  0  0  0  0  0  0  0  0
    7.4474   -4.4397   -4.4326 C   0  0  0  0  0  0  0  0  0  0  0  0
    7.0528   -5.3783   -3.4210 O   0  0  0  0  0  0  0  0  0  0  0  0
    7.1822   -4.9620   -2.1381 C   0  0  0  0  0  0  0  0  0  0  0  0
    7.5764   -3.8795   -1.7422 O   0  0  0  0  0  0  0  0  0  0  0  0
    6.5938   -5.9855   -1.2500 C   0  0  0  0  0  0  0  0  0  0  0  0
    5.4362   -5.6805   -0.5163 C   0  0  0  0  0  0  0  0  0  0  0  0
    4.8964   -6.6150    0.3676 C   0  0  0  0  0  0  0  0  0  0  0  0
    5.5469   -7.8382    0.5584 C   0  0  0  0  0  0  0  0  0  0  0  0
    5.1856   -8.7175    1.6950 C   0  0  0  0  0  0  0  0  0  0  0  0
    6.0471   -8.6663    2.9255 C   0  0  0  0  0  0  0  0  0  0  0  0
    6.0572   -9.4526    3.9694 N   0  0  0  0  0  0  0  0  0  0  0  0
    7.0766   -8.9779    4.7849 C   0  0  0  0  0  0  0  0  0  0  0  0
    7.4772   -9.4422    5.9915 C   0  0  0  0  0  0  0  0  0  0  0  0
    8.6393   -8.7538    6.6466 C   0  0  0  0  0  0  0  0  0  0  0  0
    8.5463   -7.4486    7.1476 C   0  0  0  0  0  0  0  0  0  0  0  0
    7.4066   -6.7514    7.0230 F   0  0  0  0  0  0  0  0  0  0  0  0
    9.6380   -6.8169    7.7462 C   0  0  0  0  0  0  0  0  0  0  0  0
   10.8439   -7.4998    7.8911 C   0  0  0  0  0  0  0  0  0  0  0  0
   10.9534   -8.8067    7.4214 C   0  0  0  0  0  0  0  0  0  0  0  0
    9.8651   -9.4157    6.7956 C   0  0  0  0  0  0  0  0  0  0  0  0
   10.0234  -10.6683    6.3420 F   0  0  0  0  0  0  0  0  0  0  0  0
    6.8815  -10.5701    6.6567 C   0  0  0  0  0  0  0  0  0  0  0  0
    7.2075  -11.1161    7.8853 C   0  0  0  0  0  0  0  0  0  0  0  0
    6.4078  -12.2447    8.0860 C   0  0  0  0  0  0  0  0  0  0  0  0
    5.5320  -12.3572    7.0177 C   0  0  0  0  0  0  0  0  0  0  0  0
    5.8432  -11.3316    6.1415 N   0  0  0  0  0  0  0  0  0  0  0  0
    4.4896  -13.3315    6.8126 C   0  0  0  0  0  0  0  0  0  0  0  0
    4.2609  -14.3378    7.9053 C   0  0  0  0  0  0  0  0  0  0  0  0
    4.5887  -15.6911    7.7610 C   0  0  0  0  0  0  0  0  0  0  0  0
    5.0550  -16.1578    6.5929 F   0  0  0  0  0  0  0  0  0  0  0  0
    4.4196  -16.5979    8.8100 C   0  0  0  0  0  0  0  0  0  0  0  0
    3.9469  -16.1567   10.0450 C   0  0  0  0  0  0  0  0  0  0  0  0
    3.6255  -14.8126   10.2159 C   0  0  0  0  0  0  0  0  0  0  0  0
    3.7690  -13.9226    9.1512 C   0  0  0  0  0  0  0  0  0  0  0  0
    3.4461  -12.6374    9.3621 F   0  0  0  0  0  0  0  0  0  0  0  0
    3.6779  -13.3789    5.7274 C   0  0  0  0  0  0  0  0  0  0  0  0
    3.6318  -12.5256    4.6299 N   0  0  0  0  0  0  0  0  0  0  0  0
    2.6734  -12.9801    3.8581 C   0  0  0  0  0  0  0  0  0  0  0  0
    2.1526  -12.4251    2.5554 C   0  0  0  0  0  0  0  0  0  0  0  0
    1.0490  -13.1111    1.8341 C   0  0  0  0  0  0  0  0  0  0  0  0
   -0.2454  -13.1534    2.3655 C   0  0  0  0  0  0  0  0  0  0  0  0
   -0.5104  -12.5674    3.5426 F   0  0  0  0  0  0  0  0  0  0  0  0
   -1.2791  -13.8383    1.7241 C   0  0  0  0  0  0  0  0  0  0  0  0
   -1.0413  -14.4744    0.5075 C   0  0  0  0  0  0  0  0  0  0  0  0
    0.2337  -14.4294   -0.0524 C   0  0  0  0  0  0  0  0  0  0  0  0
    1.2649  -13.7659    0.6150 C   0  0  0  0  0  0  0  0  0  0  0  0
    2.4818  -13.7653    0.0513 F   0  0  0  0  0  0  0  0  0  0  0  0
    2.7089  -11.3105    2.0406 C   0  0  0  0  0  0  0  0  0  0  0  0
    2.3446  -10.6755    0.7746 C   0  0  0  0  0  0  0  0  0  0  0  0
    3.2055   -9.6743    0.5185 C   0  0  0  0  0  0  0  0  0  0  0  0
    4.1499   -9.5708    1.6276 C   0  0  0  0  0  0  0  0  0  0  0  0
    3.7431  -10.5392    2.5121 N   0  0  0  0  0  0  0  0  0  0  0  0
    2.0350  -14.2061    4.3611 C   0  0  0  0  0  0  0  0  0  0  0  0
    2.6535  -14.3802    5.5207 C   0  0  0  0  0  0  0  0  0  0  0  0
    7.6761   -7.8504    4.1056 C   0  0  0  0  0  0  0  0  0  0  0  0
    7.0440   -7.5836    2.9737 C   0  0  0  0  0  0  0  0  0  0  0  0
    6.6870   -8.1506   -0.2068 C   0  0  0  0  0  0  0  0  0  0  0  0
    7.2102   -7.2276   -1.1140 C   0  0  0  0  0  0  0  0  0  0  0  0
    1.1773   -2.2868   -4.1029 C   0  0  0  0  0  0  0  0  0  0  0  0
    0.0341    1.2477   -0.1035 O   0  0  0  0  0  0  0  0  0  0  0  0
   -0.0491   -1.4125    1.6219 H   0  0  0  0  0  0  0  0  0  0  0  0
    1.9683   -1.1825    0.1251 H   0  0  0  0  0  0  0  0  0  0  0  0
    2.2218   -0.2303    1.5145 H   0  0  0  0  0  0  0  0  0  0  0  0
    2.0681    1.6331    0.2012 H   0  0  0  0  0  0  0  0  0  0  0  0
    2.7172    0.0237   -1.6158 H   0  0  0  0  0  0  0  0  0  0  0  0
    2.1613    1.7438   -1.8988 H   0  0  0  0  0  0  0  0  0  0  0  0
   -0.0432   -1.7788   -1.0427 H   0  0  0  0  0  0  0  0  0  0  0  0
   -0.0208   -4.1696   -1.0638 H   0  0  0  0  0  0  0  0  0  0  0  0
    3.6066   -4.3880   -7.5382 H   0  0  0  0  0  0  0  0  0  0  0  0
    2.1940   -5.4804   -7.3065 H   0  0  0  0  0  0  0  0  0  0  0  0
    4.5772   -6.4156   -7.2067 H   0  0  0  0  0  0  0  0  0  0  0  0
    3.2751   -6.8837   -6.0256 H   0  0  0  0  0  0  0  0  0  0  0  0
    4.5306   -6.2303   -3.2904 H   0  0  0  0  0  0  0  0  0  0  0  0
    3.1284   -5.6456   -4.2008 H   0  0  0  0  0  0  0  0  0  0  0  0
    5.0804   -4.1791   -2.7290 H   0  0  0  0  0  0  0  0  0  0  0  0
    3.5084   -3.6833   -3.5280 H   0  0  0  0  0  0  0  0  0  0  0  0
    6.7917   -2.7768   -5.5561 H   0  0  0  0  0  0  0  0  0  0  0  0
    5.9454   -4.3935   -5.8344 H   0  0  0  0  0  0  0  0  0  0  0  0
    8.0910   -3.7215   -3.9689 H   0  0  0  0  0  0  0  0  0  0  0  0
    7.9002   -5.0379   -5.1955 H   0  0  0  0  0  0  0  0  0  0  0  0
    4.9826   -4.7607   -0.6315 H   0  0  0  0  0  0  0  0  0  0  0  0
    4.0236   -6.4053    0.8768 H   0  0  0  0  0  0  0  0  0  0  0  0
    9.5519   -5.8446    8.0812 H   0  0  0  0  0  0  0  0  0  0  0  0
   11.6501   -7.0407    8.3431 H   0  0  0  0  0  0  0  0  0  0  0  0
   11.8389   -9.3241    7.5362 H   0  0  0  0  0  0  0  0  0  0  0  0
    7.9179  -10.7531    8.5400 H   0  0  0  0  0  0  0  0  0  0  0  0
    6.4605  -12.8857    8.8930 H   0  0  0  0  0  0  0  0  0  0  0  0
    5.3943  -11.1673    5.2808 H   0  0  0  0  0  0  0  0  0  0  0  0
    4.6448  -17.5953    8.6706 H   0  0  0  0  0  0  0  0  0  0  0  0
    3.8360  -16.8212   10.8268 H   0  0  0  0  0  0  0  0  0  0  0  0
    3.2817  -14.4754   11.1287 H   0  0  0  0  0  0  0  0  0  0  0  0
   -2.2182  -13.8734    2.1506 H   0  0  0  0  0  0  0  0  0  0  0  0
   -1.8038  -14.9751    0.0248 H   0  0  0  0  0  0  0  0  0  0  0  0
    0.4157  -14.8862   -0.9597 H   0  0  0  0  0  0  0  0  0  0  0  0
    1.5527  -10.9517    0.1732 H   0  0  0  0  0  0  0  0  0  0  0  0
    3.1996   -9.0774   -0.3233 H   0  0  0  0  0  0  0  0  0  0  0  0
    4.1528  -10.6681    3.3980 H   0  0  0  0  0  0  0  0  0  0  0  0
    1.2975  -14.7812    3.9248 H   0  0  0  0  0  0  0  0  0  0  0  0
    2.4327  -15.1336    6.1905 H   0  0  0  0  0  0  0  0  0  0  0  0
    8.4903   -7.3229    4.4575 H   0  0  0  0  0  0  0  0  0  0  0  0
    7.2070   -6.8178    2.3014 H   0  0  0  0  0  0  0  0  0  0  0  0
    7.1403   -9.0711   -0.0958 H   0  0  0  0  0  0  0  0  0  0  0  0
    8.0429   -7.4622   -1.6767 H   0  0  0  0  0  0  0  0  0  0  0  0
    1.5345   -1.7997   -4.9396 H   0  0  0  0  0  0  0  0  0  0  0  0
  1  2  2  0  0  0  0
  2  3  1  0  0  0  0
  2 82  1  0  0  0  0
  3  4  1  0  0  0  0
  3 83  1  0  0  0  0
  4  5  1  0  0  0  0
  4 84  1  0  0  0  0
  4 85  1  0  0  0  0
  5 82  1  0  0  0  0
  5  6  1  0  0  0  0
  5 86  1  1  0  0  0
  6  7  1  0  0  0  0
  6 87  1  0  0  0  0
  6 88  1  0  0  0  0
  7  8  1  0  0  0  0
  8  9  1  0  0  0  0
  8 81  2  0  0  0  0
  9 10  2  0  0  0  0
  9 89  1  0  0  0  0
 10 11  1  0  0  0  0
 10 90  1  0  0  0  0
 11 12  2  0  0  0  0
 12 13  1  0  0  0  0
 12 81  1  0  0  0  0
 13 14  2  0  0  0  0
 13 15  1  0  0  0  0
 15 16  1  0  0  0  0
 16 17  1  0  0  0  0
 16 91  1  0  0  0  0
 16 92  1  0  0  0  0
 17 18  1  0  0  0  0
 17 93  1  0  0  0  0
 17 94  1  0  0  0  0
 18 19  1  0  0  0  0
 19 20  1  0  0  0  0
 19 95  1  0  0  0  0
 19 96  1  0  0  0  0
 20 21  1  0  0  0  0
 20 97  1  0  0  0  0
 20 98  1  0  0  0  0
 21 22  1  0  0  0  0
 22 23  1  0  0  0  0
 22 99  1  0  0  0  0
 22100  1  0  0  0  0
 23 24  1  0  0  0  0
 23101  1  0  0  0  0
 23102  1  0  0  0  0
 24 25  1  0  0  0  0
 25 26  2  0  0  0  0
 25 27  1  0  0  0  0
 27 28  1  0  0  0  0
 27 80  2  0  0  0  0
 28 29  2  0  0  0  0
 28103  1  0  0  0  0
 29 30  1  0  0  0  0
 29104  1  0  0  0  0
 30 31  1  0  0  0  0
 30 79  2  0  0  0  0
 31 32  1  0  0  0  0
 31 73  2  0  0  0  0
 32 33  2  0  0  0  0
 32 78  1  0  0  0  0
 33 34  1  0  0  0  0
 34 35  2  0  0  0  0
 34 77  1  0  0  0  0
 35 36  1  0  0  0  0
 35 44  1  0  0  0  0
 36 37  1  0  0  0  0
 36 42  2  0  0  0  0
 37 38  1  0  0  0  0
 37 39  2  0  0  0  0
 39 40  1  0  0  0  0
 39105  1  0  0  0  0
 40 41  2  0  0  0  0
 40106  1  0  0  0  0
 41 42  1  0  0  0  0
 41107  1  0  0  0  0
 42 43  1  0  0  0  0
 44 45  2  0  0  0  0
 44 48  1  0  0  0  0
 45 46  1  0  0  0  0
 45108  1  0  0  0  0
 46 47  2  0  0  0  0
 46109  1  0  0  0  0
 47 48  1  0  0  0  0
 47 49  1  0  0  0  0
 48110  1  0  0  0  0
 49 50  1  0  0  0  0
 49 58  2  0  0  0  0
 50 51  1  0  0  0  0
 50 56  2  0  0  0  0
 51 52  1  0  0  0  0
 51 53  2  0  0  0  0
 53 54  1  0  0  0  0
 53111  1  0  0  0  0
 54 55  2  0  0  0  0
 54112  1  0  0  0  0
 55 56  1  0  0  0  0
 55113  1  0  0  0  0
 56 57  1  0  0  0  0
 58 59  1  0  0  0  0
 58 76  1  0  0  0  0
 59 60  2  0  0  0  0
 60 61  1  0  0  0  0
 60 75  1  0  0  0  0
 61 62  1  0  0  0  0
 61 70  2  0  0  0  0
 62 63  1  0  0  0  0
 62 68  2  0  0  0  0
 63 64  1  0  0  0  0
 63 65  2  0  0  0  0
 65 66  1  0  0  0  0
 65114  1  0  0  0  0
 66 67  2  0  0  0  0
 66115  1  0  0  0  0
 67 68  1  0  0  0  0
 67116  1  0  0  0  0
 68 69  1  0  0  0  0
 70 71  1  0  0  0  0
 70 74  1  0  0  0  0
 71 72  2  0  0  0  0
 71117  1  0  0  0  0
 72 73  1  0  0  0  0
 72118  1  0  0  0  0
 73 74  1  0  0  0  0
 74119  1  0  0  0  0
 75 76  2  0  0  0  0
 75120  1  0  0  0  0
 76121  1  0  0  0  0
 77 78  2  0  0  0  0
 77122  1  0  0  0  0
 78123  1  0  0  0  0
 79 80  1  0  0  0  0
 79124  1  0  0  0  0
 80125  1  0  0  0  0
 81126  1  0  0  0  0
M  END
$$$$
