1_6_5677
 OpenBabel04152301373D

133143  0  0  0  0  0  0  0  0999 V2000
    0.9933   -0.4392   -2.1606 O   0  0  0  0  0  0  0  0  0  0  0  0
    2.1758   -0.3460   -1.8295 C   0  0  0  0  0  0  0  0  0  0  0  0
    2.7303    0.8917   -1.8038 O   0  0  0  0  0  0  0  0  0  0  0  0
    4.0498    1.2560   -1.3747 C   0  0  0  0  0  0  0  0  0  0  0  0
    4.1039    1.5096    0.1313 C   0  0  0  0  0  0  0  0  0  0  0  0
    3.3054    0.5930    0.8792 O   0  0  0  0  0  0  0  0  0  0  0  0
    1.9747    1.0320    1.1650 C   0  0  0  0  0  0  0  0  0  0  0  0
    1.5806    0.5985    2.5772 C   0  0  0  0  0  0  0  0  0  0  0  0
    2.2404    1.3133    3.6206 O   0  0  0  0  0  0  0  0  0  0  0  0
    3.6625    1.3396    3.5651 C   0  0  0  0  0  0  0  0  0  0  0  0
    4.4179   -0.0046    3.5581 C   0  0  0  0  0  0  0  0  0  0  0  0
    3.6278   -1.1178    3.9567 O   0  0  0  0  0  0  0  0  0  0  0  0
    3.8598   -1.5994    5.2737 C   0  0  0  0  0  0  0  0  0  0  0  0
    3.2178   -0.7464    6.3660 C   0  0  0  0  0  0  0  0  0  0  0  0
    3.7440    0.5806    6.5532 O   0  0  0  0  0  0  0  0  0  0  0  0
    5.0634    0.8345    6.6930 C   0  0  0  0  0  0  0  0  0  0  0  0
    5.9903    0.0451    6.6706 O   0  0  0  0  0  0  0  0  0  0  0  0
    5.1994    2.3111    6.6685 C   0  0  0  0  0  0  0  0  0  0  0  0
    4.2530    3.0519    7.4019 C   0  0  0  0  0  0  0  0  0  0  0  0
    4.1920    4.4259    7.2593 C   0  0  0  0  0  0  0  0  0  0  0  0
    3.2810    5.1259    7.9439 F   0  0  0  0  0  0  0  0  0  0  0  0
    5.0537    5.0804    6.4005 C   0  0  0  0  0  0  0  0  0  0  0  0
    6.0148    4.3508    5.6963 C   0  0  0  0  0  0  0  0  0  0  0  0
    6.1169    2.9573    5.8093 C   0  0  0  0  0  0  0  0  0  0  0  0
    7.2091    2.2447    5.1868 N   0  0  0  0  0  0  0  0  0  0  0  0
    7.6849    2.5265    3.5865 S   0  0  0  0  0  0  0  0  0  0  0  0
    8.7980    1.6500    3.3005 O   0  0  0  0  0  0  0  0  0  0  0  0
    6.4993    2.5140    2.7550 O   0  0  0  0  0  0  0  0  0  0  0  0
    8.3276    4.1753    3.4028 C   0  0  0  0  0  0  0  0  0  0  0  0
    7.9892    5.2085    2.5418 C   0  0  0  0  0  0  0  0  0  0  0  0
    8.5764    6.4479    2.9362 C   0  0  0  0  0  0  0  0  0  0  0  0
    9.3820    6.2804    4.0330 C   0  0  0  0  0  0  0  0  0  0  0  0
   10.1984    7.5169    4.8993 Cl  0  0  0  0  0  0  0  0  0  0  0  0
    9.5118    4.6701    4.5416 S   0  0  0  0  0  0  0  0  0  0  0  0
    2.9124   -1.6204   -1.5333 C   0  0  0  0  0  0  0  0  0  0  0  0
    4.0661   -1.7501   -0.7549 C   0  0  0  0  0  0  0  0  0  0  0  0
    4.6900   -2.9788   -0.5716 C   0  0  0  0  0  0  0  0  0  0  0  0
    4.1527   -4.1247   -1.1489 C   0  0  0  0  0  0  0  0  0  0  0  0
    4.9668   -5.3516   -1.1414 C   0  0  0  0  0  0  0  0  0  0  0  0
    5.7452   -5.6754   -2.3806 C   0  0  0  0  0  0  0  0  0  0  0  0
    6.4880   -6.7145   -2.6452 N   0  0  0  0  0  0  0  0  0  0  0  0
    6.9720   -6.5077   -3.9301 C   0  0  0  0  0  0  0  0  0  0  0  0
    7.7837   -7.3118   -4.6514 C   0  0  0  0  0  0  0  0  0  0  0  0
    8.1038   -6.8924   -6.0528 C   0  0  0  0  0  0  0  0  0  0  0  0
    7.5002   -7.5372   -7.1397 C   0  0  0  0  0  0  0  0  0  0  0  0
    6.6217   -8.5310   -6.9390 F   0  0  0  0  0  0  0  0  0  0  0  0
    7.7860   -7.1728   -8.4560 C   0  0  0  0  0  0  0  0  0  0  0  0
    8.6773   -6.1330   -8.7118 C   0  0  0  0  0  0  0  0  0  0  0  0
    9.2817   -5.4687   -7.6456 C   0  0  0  0  0  0  0  0  0  0  0  0
    9.0024   -5.8557   -6.3330 C   0  0  0  0  0  0  0  0  0  0  0  0
    9.5905   -5.1773   -5.3361 F   0  0  0  0  0  0  0  0  0  0  0  0
    8.2939   -8.5585   -4.1555 C   0  0  0  0  0  0  0  0  0  0  0  0
    9.0559   -9.5045   -4.8125 C   0  0  0  0  0  0  0  0  0  0  0  0
    9.2823  -10.5623   -3.9268 C   0  0  0  0  0  0  0  0  0  0  0  0
    8.7004  -10.2530   -2.7052 C   0  0  0  0  0  0  0  0  0  0  0  0
    8.0906   -9.0238   -2.8631 N   0  0  0  0  0  0  0  0  0  0  0  0
    8.7029  -11.0319   -1.4924 C   0  0  0  0  0  0  0  0  0  0  0  0
    9.4214  -12.3442   -1.5408 C   0  0  0  0  0  0  0  0  0  0  0  0
   10.8194  -12.3859   -1.6052 C   0  0  0  0  0  0  0  0  0  0  0  0
   11.5389  -11.2555   -1.5370 F   0  0  0  0  0  0  0  0  0  0  0  0
   11.5012  -13.5889   -1.7800 C   0  0  0  0  0  0  0  0  0  0  0  0
   10.7890  -14.7836   -1.8697 C   0  0  0  0  0  0  0  0  0  0  0  0
    9.3974  -14.7662   -1.7830 C   0  0  0  0  0  0  0  0  0  0  0  0
    8.7250  -13.5542   -1.6318 C   0  0  0  0  0  0  0  0  0  0  0  0
    7.3851  -13.5748   -1.5682 F   0  0  0  0  0  0  0  0  0  0  0  0
    8.1202  -10.6859   -0.3183 C   0  0  0  0  0  0  0  0  0  0  0  0
    7.4022   -9.5431    0.0032 N   0  0  0  0  0  0  0  0  0  0  0  0
    7.0218   -9.6920    1.2513 C   0  0  0  0  0  0  0  0  0  0  0  0
    6.2113   -8.7575    2.1101 C   0  0  0  0  0  0  0  0  0  0  0  0
    5.9073   -9.0712    3.5311 C   0  0  0  0  0  0  0  0  0  0  0  0
    4.5977   -9.3385    3.9546 C   0  0  0  0  0  0  0  0  0  0  0  0
    3.5844   -9.3208    3.0759 F   0  0  0  0  0  0  0  0  0  0  0  0
    4.2965   -9.6132    5.2900 C   0  0  0  0  0  0  0  0  0  0  0  0
    5.3164   -9.6570    6.2367 C   0  0  0  0  0  0  0  0  0  0  0  0
    6.6299   -9.4139    5.8391 C   0  0  0  0  0  0  0  0  0  0  0  0
    6.9126   -9.1133    4.5036 C   0  0  0  0  0  0  0  0  0  0  0  0
    8.1906   -8.8908    4.1638 F   0  0  0  0  0  0  0  0  0  0  0  0
    5.7210   -7.6409    1.5389 C   0  0  0  0  0  0  0  0  0  0  0  0
    4.8910   -6.6335    2.1922 C   0  0  0  0  0  0  0  0  0  0  0  0
    4.5006   -5.7296    1.2780 C   0  0  0  0  0  0  0  0  0  0  0  0
    5.1090   -6.0642   -0.0110 C   0  0  0  0  0  0  0  0  0  0  0  0
    5.8332   -7.1978    0.2434 N   0  0  0  0  0  0  0  0  0  0  0  0
    7.4507  -10.9565    1.8624 C   0  0  0  0  0  0  0  0  0  0  0  0
    8.1404  -11.5110    0.8740 C   0  0  0  0  0  0  0  0  0  0  0  0
    6.4434   -5.2481   -4.3973 C   0  0  0  0  0  0  0  0  0  0  0  0
    5.6948   -4.6782   -3.4664 C   0  0  0  0  0  0  0  0  0  0  0  0
    2.9569   -4.0433   -1.8668 C   0  0  0  0  0  0  0  0  0  0  0  0
    2.3510   -2.7986   -2.0618 C   0  0  0  0  0  0  0  0  0  0  0  0
    4.3477    2.1467   -1.8874 H   0  0  0  0  0  0  0  0  0  0  0  0
    4.7101    0.4449   -1.6005 H   0  0  0  0  0  0  0  0  0  0  0  0
    3.7536    2.5023    0.3229 H   0  0  0  0  0  0  0  0  0  0  0  0
    5.1192    1.3779    0.4422 H   0  0  0  0  0  0  0  0  0  0  0  0
    1.2979    0.5990    0.4583 H   0  0  0  0  0  0  0  0  0  0  0  0
    1.9315    2.0990    1.0971 H   0  0  0  0  0  0  0  0  0  0  0  0
    1.8128   -0.4404    2.6850 H   0  0  0  0  0  0  0  0  0  0  0  0
    0.5359    0.8062    2.6791 H   0  0  0  0  0  0  0  0  0  0  0  0
    4.0028    1.8900    4.4172 H   0  0  0  0  0  0  0  0  0  0  0  0
    3.8820    1.7712    2.6109 H   0  0  0  0  0  0  0  0  0  0  0  0
    5.2493    0.0739    4.2271 H   0  0  0  0  0  0  0  0  0  0  0  0
    4.7164   -0.1850    2.5465 H   0  0  0  0  0  0  0  0  0  0  0  0
    4.9161   -1.6238    5.4424 H   0  0  0  0  0  0  0  0  0  0  0  0
    3.4120   -2.5694    5.3333 H   0  0  0  0  0  0  0  0  0  0  0  0
    3.3284   -1.2710    7.2920 H   0  0  0  0  0  0  0  0  0  0  0  0
    2.2067   -0.6019    6.0473 H   0  0  0  0  0  0  0  0  0  0  0  0
    3.6056    2.5700    8.0451 H   0  0  0  0  0  0  0  0  0  0  0  0
    4.9878    6.1032    6.2797 H   0  0  0  0  0  0  0  0  0  0  0  0
    6.6685    4.8523    5.0749 H   0  0  0  0  0  0  0  0  0  0  0  0
    7.6951    1.5696    5.7133 H   0  0  0  0  0  0  0  0  0  0  0  0
    7.3841    5.0945    1.7136 H   0  0  0  0  0  0  0  0  0  0  0  0
    8.4162    7.3493    2.4599 H   0  0  0  0  0  0  0  0  0  0  0  0
    4.4652   -0.9117   -0.3045 H   0  0  0  0  0  0  0  0  0  0  0  0
    5.5518   -3.0408   -0.0072 H   0  0  0  0  0  0  0  0  0  0  0  0
    7.3375   -7.6731   -9.2393 H   0  0  0  0  0  0  0  0  0  0  0  0
    8.8885   -5.8566   -9.6834 H   0  0  0  0  0  0  0  0  0  0  0  0
    9.9355   -4.6909   -7.8262 H   0  0  0  0  0  0  0  0  0  0  0  0
    9.3974   -9.4418   -5.7843 H   0  0  0  0  0  0  0  0  0  0  0  0
    9.7970  -11.4297   -4.1452 H   0  0  0  0  0  0  0  0  0  0  0  0
    7.5868   -8.5484   -2.1635 H   0  0  0  0  0  0  0  0  0  0  0  0
   12.5313  -13.5950   -1.8429 H   0  0  0  0  0  0  0  0  0  0  0  0
   11.2892  -15.6769   -1.9997 H   0  0  0  0  0  0  0  0  0  0  0  0
    8.8658  -15.6494   -1.8307 H   0  0  0  0  0  0  0  0  0  0  0  0
    3.3193   -9.7835    5.5749 H   0  0  0  0  0  0  0  0  0  0  0  0
    5.1017   -9.8676    7.2239 H   0  0  0  0  0  0  0  0  0  0  0  0
    7.3943   -9.4559    6.5312 H   0  0  0  0  0  0  0  0  0  0  0  0
    4.6440   -6.6180    3.1941 H   0  0  0  0  0  0  0  0  0  0  0  0
    3.8736   -4.9293    1.4556 H   0  0  0  0  0  0  0  0  0  0  0  0
    6.3816   -7.6518   -0.4366 H   0  0  0  0  0  0  0  0  0  0  0  0
    7.2647  -11.3184    2.8108 H   0  0  0  0  0  0  0  0  0  0  0  0
    8.6302  -12.4166    0.9448 H   0  0  0  0  0  0  0  0  0  0  0  0
    6.6247   -4.8465   -5.3305 H   0  0  0  0  0  0  0  0  0  0  0  0
    5.2032   -3.7712   -3.4932 H   0  0  0  0  0  0  0  0  0  0  0  0
    2.5233   -4.8973   -2.2510 H   0  0  0  0  0  0  0  0  0  0  0  0
    1.4747   -2.7422   -2.6040 H   0  0  0  0  0  0  0  0  0  0  0  0
  1  2  2  0  0  0  0
  2  3  1  0  0  0  0
  2 35  1  0  0  0  0
  3  4  1  0  0  0  0
  4  5  1  0  0  0  0
  4 89  1  0  0  0  0
  4 90  1  0  0  0  0
  5  6  1  0  0  0  0
  5 91  1  0  0  0  0
  5 92  1  0  0  0  0
  6  7  1  0  0  0  0
  7  8  1  0  0  0  0
  7 93  1  0  0  0  0
  7 94  1  0  0  0  0
  8  9  1  0  0  0  0
  8 95  1  0  0  0  0
  8 96  1  0  0  0  0
  9 10  1  0  0  0  0
 10 11  1  0  0  0  0
 10 97  1  0  0  0  0
 10 98  1  0  0  0  0
 11 12  1  0  0  0  0
 11 99  1  0  0  0  0
 11100  1  0  0  0  0
 12 13  1  0  0  0  0
 13 14  1  0  0  0  0
 13101  1  0  0  0  0
 13102  1  0  0  0  0
 14 15  1  0  0  0  0
 14103  1  0  0  0  0
 14104  1  0  0  0  0
 15 16  1  0  0  0  0
 16 17  2  0  0  0  0
 16 18  1  0  0  0  0
 18 19  1  0  0  0  0
 18 24  2  0  0  0  0
 19 20  2  0  0  0  0
 19105  1  0  0  0  0
 20 21  1  0  0  0  0
 20 22  1  0  0  0  0
 22 23  2  0  0  0  0
 22106  1  0  0  0  0
 23 24  1  0  0  0  0
 23107  1  0  0  0  0
 24 25  1  0  0  0  0
 25 26  1  0  0  0  0
 25108  1  0  0  0  0
 26 27  2  0  0  0  0
 26 28  2  0  0  0  0
 26 29  1  0  0  0  0
 29 30  2  0  0  0  0
 29 34  1  0  0  0  0
 30 31  1  0  0  0  0
 30109  1  0  0  0  0
 31 32  2  0  0  0  0
 31110  1  0  0  0  0
 32 33  1  0  0  0  0
 32 34  1  0  0  0  0
 35 36  1  0  0  0  0
 35 88  2  0  0  0  0
 36 37  2  0  0  0  0
 36111  1  0  0  0  0
 37 38  1  0  0  0  0
 37112  1  0  0  0  0
 38 39  1  0  0  0  0
 38 87  2  0  0  0  0
 39 40  1  0  0  0  0
 39 81  2  0  0  0  0
 40 41  2  0  0  0  0
 40 86  1  0  0  0  0
 41 42  1  0  0  0  0
 42 43  2  0  0  0  0
 42 85  1  0  0  0  0
 43 44  1  0  0  0  0
 43 52  1  0  0  0  0
 44 45  1  0  0  0  0
 44 50  2  0  0  0  0
 45 46  1  0  0  0  0
 45 47  2  0  0  0  0
 47 48  1  0  0  0  0
 47113  1  0  0  0  0
 48 49  2  0  0  0  0
 48114  1  0  0  0  0
 49 50  1  0  0  0  0
 49115  1  0  0  0  0
 50 51  1  0  0  0  0
 52 53  2  0  0  0  0
 52 56  1  0  0  0  0
 53 54  1  0  0  0  0
 53116  1  0  0  0  0
 54 55  2  0  0  0  0
 54117  1  0  0  0  0
 55 56  1  0  0  0  0
 55 57  1  0  0  0  0
 56118  1  0  0  0  0
 57 58  1  0  0  0  0
 57 66  2  0  0  0  0
 58 59  1  0  0  0  0
 58 64  2  0  0  0  0
 59 60  1  0  0  0  0
 59 61  2  0  0  0  0
 61 62  1  0  0  0  0
 61119  1  0  0  0  0
 62 63  2  0  0  0  0
 62120  1  0  0  0  0
 63 64  1  0  0  0  0
 63121  1  0  0  0  0
 64 65  1  0  0  0  0
 66 67  1  0  0  0  0
 66 84  1  0  0  0  0
 67 68  2  0  0  0  0
 68 69  1  0  0  0  0
 68 83  1  0  0  0  0
 69 70  1  0  0  0  0
 69 78  2  0  0  0  0
 70 71  1  0  0  0  0
 70 76  2  0  0  0  0
 71 72  1  0  0  0  0
 71 73  2  0  0  0  0
 73 74  1  0  0  0  0
 73122  1  0  0  0  0
 74 75  2  0  0  0  0
 74123  1  0  0  0  0
 75 76  1  0  0  0  0
 75124  1  0  0  0  0
 76 77  1  0  0  0  0
 78 79  1  0  0  0  0
 78 82  1  0  0  0  0
 79 80  2  0  0  0  0
 79125  1  0  0  0  0
 80 81  1  0  0  0  0
 80126  1  0  0  0  0
 81 82  1  0  0  0  0
 82127  1  0  0  0  0
 83 84  2  0  0  0  0
 83128  1  0  0  0  0
 84129  1  0  0  0  0
 85 86  2  0  0  0  0
 85130  1  0  0  0  0
 86131  1  0  0  0  0
 87 88  1  0  0  0  0
 87132  1  0  0  0  0
 88133  1  0  0  0  0
M  END
$$$$
