1_6_1908
 OpenBabel04152301363D

150161  0  0  0  0  0  0  0  0999 V2000
    0.9613    0.4075    2.2275 O   0  0  0  0  0  0  0  0  0  0  0  0
    2.1641    0.3231    1.9776 C   0  0  0  0  0  0  0  0  0  0  0  0
    2.7154   -0.9143    1.9328 O   0  0  0  0  0  0  0  0  0  0  0  0
    4.0809   -1.2571    1.6675 C   0  0  0  0  0  0  0  0  0  0  0  0
    4.3463   -1.4321    0.1769 C   0  0  0  0  0  0  0  0  0  0  0  0
    3.5906   -0.5441   -0.6409 O   0  0  0  0  0  0  0  0  0  0  0  0
    2.2985   -0.9992   -1.0418 C   0  0  0  0  0  0  0  0  0  0  0  0
    2.0480   -0.6459   -2.5106 C   0  0  0  0  0  0  0  0  0  0  0  0
    2.8748   -1.3203   -3.4618 O   0  0  0  0  0  0  0  0  0  0  0  0
    4.2661   -1.4051   -3.1672 C   0  0  0  0  0  0  0  0  0  0  0  0
    5.0931   -0.1021   -3.0277 C   0  0  0  0  0  0  0  0  0  0  0  0
    4.3277    1.0861   -2.8671 O   0  0  0  0  0  0  0  0  0  0  0  0
    4.3456    1.9652   -3.9855 C   0  0  0  0  0  0  0  0  0  0  0  0
    3.6513    1.4366   -5.2388 C   0  0  0  0  0  0  0  0  0  0  0  0
    4.0146    0.0995   -5.6231 O   0  0  0  0  0  0  0  0  0  0  0  0
    5.1491   -0.1053   -6.3146 C   0  0  0  0  0  0  0  0  0  0  0  0
    5.9949    0.7306   -6.5890 O   0  0  0  0  0  0  0  0  0  0  0  0
    5.2984   -1.5452   -6.5549 C   0  0  0  0  0  0  0  0  0  0  0  0
    6.4702   -2.0790   -6.0090 C   0  0  0  0  0  0  0  0  0  0  0  0
    6.7409   -3.4003   -5.8984 N   0  0  0  0  0  0  0  0  0  0  0  0
    5.8135   -4.2401   -6.3862 C   0  0  0  0  0  0  0  0  0  0  0  0
    4.6515   -3.8074   -7.0028 C   0  0  0  0  0  0  0  0  0  0  0  0
    4.3609   -2.4266   -7.1037 C   0  0  0  0  0  0  0  0  0  0  0  0
    3.0030   -2.1356   -7.6812 C   0  0  0  0  0  0  0  0  0  0  0  0
    2.2745   -3.1021   -7.9280 O   0  0  0  0  0  0  0  0  0  0  0  0
    2.4878   -0.8526   -7.8254 N   0  0  0  0  0  0  0  0  0  0  0  0
    1.2302   -0.6176   -7.1153 C   0  0  0  0  0  0  0  0  0  0  0  0
    0.3431    0.4754   -7.6870 C   0  0  0  0  0  0  0  0  0  0  0  0
    1.1615    1.7229   -8.0176 C   0  0  2  0  0  0  0  0  0  0  0  0
    0.3162    2.8990   -8.5333 C   0  0  0  0  0  0  0  0  0  0  0  0
   -0.8442    3.3015   -7.6555 C   0  0  0  0  0  0  0  0  0  0  0  0
   -2.1552    3.1056   -8.1131 C   0  0  0  0  0  0  0  0  0  0  0  0
   -3.2466    3.4985   -7.3388 C   0  0  0  0  0  0  0  0  0  0  0  0
   -3.0407    4.0893   -6.0950 C   0  0  0  0  0  0  0  0  0  0  0  0
   -1.7429    4.2803   -5.6226 C   0  0  0  0  0  0  0  0  0  0  0  0
   -0.6476    3.8879   -6.3978 C   0  0  0  0  0  0  0  0  0  0  0  0
    2.1935    1.3181   -9.0814 C   0  0  0  0  0  0  0  0  0  0  0  0
    3.1253    0.2128   -8.5979 C   0  0  0  0  0  0  0  0  0  0  0  0
    2.9138    1.6073    1.7770 C   0  0  0  0  0  0  0  0  0  0  0  0
    4.0851    1.7775    1.0338 C   0  0  0  0  0  0  0  0  0  0  0  0
    4.6876    3.0204    0.8874 C   0  0  0  0  0  0  0  0  0  0  0  0
    4.1315    4.1345    1.5046 C   0  0  0  0  0  0  0  0  0  0  0  0
    4.9705    5.3383    1.6143 C   0  0  0  0  0  0  0  0  0  0  0  0
    5.7201    5.5294    2.8981 C   0  0  0  0  0  0  0  0  0  0  0  0
    6.4872    6.5129    3.2781 N   0  0  0  0  0  0  0  0  0  0  0  0
    6.9074    6.1803    4.5597 C   0  0  0  0  0  0  0  0  0  0  0  0
    7.7115    6.8892    5.3838 C   0  0  0  0  0  0  0  0  0  0  0  0
    7.9115    6.3398    6.7657 C   0  0  0  0  0  0  0  0  0  0  0  0
    8.6584    5.1795    7.0141 C   0  0  0  0  0  0  0  0  0  0  0  0
    9.2725    4.5377    6.0083 F   0  0  0  0  0  0  0  0  0  0  0  0
    8.7182    4.6076    8.2878 C   0  0  0  0  0  0  0  0  0  0  0  0
    8.0563    5.2122    9.3547 C   0  0  0  0  0  0  0  0  0  0  0  0
    7.3392    6.3867    9.1392 C   0  0  0  0  0  0  0  0  0  0  0  0
    7.2645    6.9337    7.8570 C   0  0  0  0  0  0  0  0  0  0  0  0
    6.5240    8.0396    7.6899 F   0  0  0  0  0  0  0  0  0  0  0  0
    8.2795    8.1553    5.0143 C   0  0  0  0  0  0  0  0  0  0  0  0
    9.0449    9.0202    5.7705 C   0  0  0  0  0  0  0  0  0  0  0  0
    9.3193   10.1469    4.9858 C   0  0  0  0  0  0  0  0  0  0  0  0
    8.7725    9.9581    3.7235 C   0  0  0  0  0  0  0  0  0  0  0  0
    8.1306    8.7352    3.7592 N   0  0  0  0  0  0  0  0  0  0  0  0
    8.8375   10.8333    2.5779 C   0  0  0  0  0  0  0  0  0  0  0  0
    9.6192   12.1014    2.7379 C   0  0  0  0  0  0  0  0  0  0  0  0
    8.9917   13.3479    2.8429 C   0  0  0  0  0  0  0  0  0  0  0  0
    7.6584   13.4502    2.7347 F   0  0  0  0  0  0  0  0  0  0  0  0
    9.7294   14.5163    3.0314 C   0  0  0  0  0  0  0  0  0  0  0  0
   11.1171   14.4513    3.1509 C   0  0  0  0  0  0  0  0  0  0  0  0
   11.7601   13.2181    3.0629 C   0  0  0  0  0  0  0  0  0  0  0  0
   11.0148   12.0607    2.8461 C   0  0  0  0  0  0  0  0  0  0  0  0
   11.6711   10.8934    2.7644 F   0  0  0  0  0  0  0  0  0  0  0  0
    8.2805   10.6085    1.3611 C   0  0  0  0  0  0  0  0  0  0  0  0
    7.5385    9.5230    0.9175 N   0  0  0  0  0  0  0  0  0  0  0  0
    7.2150    9.7877   -0.3280 C   0  0  0  0  0  0  0  0  0  0  0  0
    6.4206    8.9532   -1.2977 C   0  0  0  0  0  0  0  0  0  0  0  0
    6.1867    9.3902   -2.6987 C   0  0  0  0  0  0  0  0  0  0  0  0
    7.2341    9.4781   -3.6225 C   0  0  0  0  0  0  0  0  0  0  0  0
    8.4892    9.1884   -3.2497 F   0  0  0  0  0  0  0  0  0  0  0  0
    7.0176    9.8906   -4.9404 C   0  0  0  0  0  0  0  0  0  0  0  0
    5.7296   10.2044   -5.3706 C   0  0  0  0  0  0  0  0  0  0  0  0
    4.6688   10.1174   -4.4730 C   0  0  0  0  0  0  0  0  0  0  0  0
    4.9042    9.7287   -3.1527 C   0  0  0  0  0  0  0  0  0  0  0  0
    3.8535    9.6691   -2.3212 F   0  0  0  0  0  0  0  0  0  0  0  0
    5.8832    7.8062   -0.8430 C   0  0  0  0  0  0  0  0  0  0  0  0
    5.0579    6.8762   -1.6073 C   0  0  0  0  0  0  0  0  0  0  0  0
    4.6090    5.9142   -0.7833 C   0  0  0  0  0  0  0  0  0  0  0  0
    5.1731    6.1309    0.5498 C   0  0  0  0  0  0  0  0  0  0  0  0
    5.9351    7.2585    0.4148 N   0  0  0  0  0  0  0  0  0  0  0  0
    7.7003   11.0845   -0.8132 C   0  0  0  0  0  0  0  0  0  0  0  0
    8.3695   11.5288    0.2421 C   0  0  0  0  0  0  0  0  0  0  0  0
    6.3139    4.9080    4.8954 C   0  0  0  0  0  0  0  0  0  0  0  0
    5.5982    4.4423    3.8870 C   0  0  0  0  0  0  0  0  0  0  0  0
    2.9293    4.0137    2.2076 C   0  0  0  0  0  0  0  0  0  0  0  0
    2.3327    2.7571    2.3432 C   0  0  0  0  0  0  0  0  0  0  0  0
    4.3107   -2.1738    2.1693 H   0  0  0  0  0  0  0  0  0  0  0  0
    4.6972   -0.4572    2.0213 H   0  0  0  0  0  0  0  0  0  0  0  0
    4.0996   -2.4369   -0.0957 H   0  0  0  0  0  0  0  0  0  0  0  0
    5.3800   -1.2102    0.0122 H   0  0  0  0  0  0  0  0  0  0  0  0
    1.5537   -0.5305   -0.4331 H   0  0  0  0  0  0  0  0  0  0  0  0
    2.2495   -2.0616   -0.9240 H   0  0  0  0  0  0  0  0  0  0  0  0
    2.2048    0.4062   -2.6267 H   0  0  0  0  0  0  0  0  0  0  0  0
    1.0473   -0.9620   -2.7192 H   0  0  0  0  0  0  0  0  0  0  0  0
    4.7165   -1.9782   -3.9505 H   0  0  0  0  0  0  0  0  0  0  0  0
    4.2915   -1.8275   -2.1844 H   0  0  0  0  0  0  0  0  0  0  0  0
    5.6917    0.0060   -3.9080 H   0  0  0  0  0  0  0  0  0  0  0  0
    5.6674   -0.2091   -2.1312 H   0  0  0  0  0  0  0  0  0  0  0  0
    5.3672    2.1658   -4.2326 H   0  0  0  0  0  0  0  0  0  0  0  0
    3.7991    2.8357   -3.6879 H   0  0  0  0  0  0  0  0  0  0  0  0
    3.8911    2.0909   -6.0508 H   0  0  0  0  0  0  0  0  0  0  0  0
    2.6069    1.4055   -5.0084 H   0  0  0  0  0  0  0  0  0  0  0  0
    7.1818   -1.4155   -5.6647 H   0  0  0  0  0  0  0  0  0  0  0  0
    5.9743   -5.2556   -6.2974 H   0  0  0  0  0  0  0  0  0  0  0  0
    3.9915   -4.4986   -7.3923 H   0  0  0  0  0  0  0  0  0  0  0  0
    1.4674   -0.3536   -6.1059 H   0  0  0  0  0  0  0  0  0  0  0  0
    0.6702   -1.5247   -7.2074 H   0  0  0  0  0  0  0  0  0  0  0  0
   -0.4079    0.7291   -6.9683 H   0  0  0  0  0  0  0  0  0  0  0  0
   -0.1088    0.1139   -8.5870 H   0  0  0  0  0  0  0  0  0  0  0  0
    1.6208    2.0724   -7.1166 H   0  0  0  0  0  0  0  0  0  0  0  0
   -0.0744    2.6284   -9.4920 H   0  0  0  0  0  0  0  0  0  0  0  0
    0.9727    3.7436   -8.5568 H   0  0  0  0  0  0  0  0  0  0  0  0
   -2.3142    2.6658   -9.0331 H   0  0  0  0  0  0  0  0  0  0  0  0
   -4.2066    3.3513   -7.6877 H   0  0  0  0  0  0  0  0  0  0  0  0
   -3.8475    4.3854   -5.5236 H   0  0  0  0  0  0  0  0  0  0  0  0
   -1.5904    4.7126   -4.6980 H   0  0  0  0  0  0  0  0  0  0  0  0
    0.3106    4.0308   -6.0421 H   0  0  0  0  0  0  0  0  0  0  0  0
    2.7807    2.1761   -9.3342 H   0  0  0  0  0  0  0  0  0  0  0  0
    1.6580    0.9450   -9.9293 H   0  0  0  0  0  0  0  0  0  0  0  0
    3.5839   -0.2313   -9.4566 H   0  0  0  0  0  0  0  0  0  0  0  0
    3.8201    0.6829   -7.9337 H   0  0  0  0  0  0  0  0  0  0  0  0
    4.5148    0.9559    0.5807 H   0  0  0  0  0  0  0  0  0  0  0  0
    5.5456    3.1163    0.3220 H   0  0  0  0  0  0  0  0  0  0  0  0
    9.2525    3.7376    8.4383 H   0  0  0  0  0  0  0  0  0  0  0  0
    8.0971    4.7931   10.2969 H   0  0  0  0  0  0  0  0  0  0  0  0
    6.8631    6.8526    9.9274 H   0  0  0  0  0  0  0  0  0  0  0  0
    9.3589    8.8642    6.7411 H   0  0  0  0  0  0  0  0  0  0  0  0
    9.8423   10.9811    5.2950 H   0  0  0  0  0  0  0  0  0  0  0  0
    7.6397    8.3332    3.0064 H   0  0  0  0  0  0  0  0  0  0  0  0
    9.2487   15.4281    3.0824 H   0  0  0  0  0  0  0  0  0  0  0  0
   11.6653   15.3122    3.3038 H   0  0  0  0  0  0  0  0  0  0  0  0
   12.7862   13.1621    3.1581 H   0  0  0  0  0  0  0  0  0  0  0  0
    7.8119    9.9628   -5.5952 H   0  0  0  0  0  0  0  0  0  0  0  0
    5.5636   10.4986   -6.3458 H   0  0  0  0  0  0  0  0  0  0  0  0
    3.7099   10.3399   -4.7831 H   0  0  0  0  0  0  0  0  0  0  0  0
    4.8525    6.9460   -2.6162 H   0  0  0  0  0  0  0  0  0  0  0  0
    3.9706    5.1476   -1.0474 H   0  0  0  0  0  0  0  0  0  0  0  0
    6.4691    7.6404    1.1485 H   0  0  0  0  0  0  0  0  0  0  0  0
    7.5585   11.5323   -1.7321 H   0  0  0  0  0  0  0  0  0  0  0  0
    8.8898   12.4197    0.2649 H   0  0  0  0  0  0  0  0  0  0  0  0
    6.4325    4.4271    5.8007 H   0  0  0  0  0  0  0  0  0  0  0  0
    5.0865    3.5493    3.8111 H   0  0  0  0  0  0  0  0  0  0  0  0
    2.4851    4.8471    2.6238 H   0  0  0  0  0  0  0  0  0  0  0  0
    1.4488    2.6708    2.8688 H   0  0  0  0  0  0  0  0  0  0  0  0
  1  2  2  0  0  0  0
  2  3  1  0  0  0  0
  2 39  1  0  0  0  0
  3  4  1  0  0  0  0
  4  5  1  0  0  0  0
  4 93  1  0  0  0  0
  4 94  1  0  0  0  0
  5  6  1  0  0  0  0
  5 95  1  0  0  0  0
  5 96  1  0  0  0  0
  6  7  1  0  0  0  0
  7  8  1  0  0  0  0
  7 97  1  0  0  0  0
  7 98  1  0  0  0  0
  8  9  1  0  0  0  0
  8 99  1  0  0  0  0
  8100  1  0  0  0  0
  9 10  1  0  0  0  0
 10 11  1  0  0  0  0
 10101  1  0  0  0  0
 10102  1  0  0  0  0
 11 12  1  0  0  0  0
 11103  1  0  0  0  0
 11104  1  0  0  0  0
 12 13  1  0  0  0  0
 13 14  1  0  0  0  0
 13105  1  0  0  0  0
 13106  1  0  0  0  0
 14 15  1  0  0  0  0
 14107  1  0  0  0  0
 14108  1  0  0  0  0
 15 16  1  0  0  0  0
 16 17  2  0  0  0  0
 16 18  1  0  0  0  0
 18 19  1  0  0  0  0
 18 23  2  0  0  0  0
 19 20  2  0  0  0  0
 19109  1  0  0  0  0
 20 21  1  0  0  0  0
 21 22  2  0  0  0  0
 21110  1  0  0  0  0
 22 23  1  0  0  0  0
 22111  1  0  0  0  0
 23 24  1  0  0  0  0
 24 25  2  0  0  0  0
 24 26  1  0  0  0  0
 26 27  1  0  0  0  0
 26 38  1  0  0  0  0
 27 28  1  0  0  0  0
 27112  1  0  0  0  0
 27113  1  0  0  0  0
 28 29  1  0  0  0  0
 28114  1  0  0  0  0
 28115  1  0  0  0  0
 29 30  1  0  0  0  0
 29 37  1  0  0  0  0
 29116  1  1  0  0  0
 30 31  1  0  0  0  0
 30117  1  0  0  0  0
 30118  1  0  0  0  0
 31 32  1  0  0  0  0
 31 36  2  0  0  0  0
 32 33  2  0  0  0  0
 32119  1  0  0  0  0
 33 34  1  0  0  0  0
 33120  1  0  0  0  0
 34 35  2  0  0  0  0
 34121  1  0  0  0  0
 35 36  1  0  0  0  0
 35122  1  0  0  0  0
 36123  1  0  0  0  0
 37 38  1  0  0  0  0
 37124  1  0  0  0  0
 37125  1  0  0  0  0
 38126  1  0  0  0  0
 38127  1  0  0  0  0
 39 40  1  0  0  0  0
 39 92  2  0  0  0  0
 40 41  2  0  0  0  0
 40128  1  0  0  0  0
 41 42  1  0  0  0  0
 41129  1  0  0  0  0
 42 43  1  0  0  0  0
 42 91  2  0  0  0  0
 43 44  1  0  0  0  0
 43 85  2  0  0  0  0
 44 45  2  0  0  0  0
 44 90  1  0  0  0  0
 45 46  1  0  0  0  0
 46 47  2  0  0  0  0
 46 89  1  0  0  0  0
 47 48  1  0  0  0  0
 47 56  1  0  0  0  0
 48 49  1  0  0  0  0
 48 54  2  0  0  0  0
 49 50  1  0  0  0  0
 49 51  2  0  0  0  0
 51 52  1  0  0  0  0
 51130  1  0  0  0  0
 52 53  2  0  0  0  0
 52131  1  0  0  0  0
 53 54  1  0  0  0  0
 53132  1  0  0  0  0
 54 55  1  0  0  0  0
 56 57  2  0  0  0  0
 56 60  1  0  0  0  0
 57 58  1  0  0  0  0
 57133  1  0  0  0  0
 58 59  2  0  0  0  0
 58134  1  0  0  0  0
 59 60  1  0  0  0  0
 59 61  1  0  0  0  0
 60135  1  0  0  0  0
 61 62  1  0  0  0  0
 61 70  2  0  0  0  0
 62 63  1  0  0  0  0
 62 68  2  0  0  0  0
 63 64  1  0  0  0  0
 63 65  2  0  0  0  0
 65 66  1  0  0  0  0
 65136  1  0  0  0  0
 66 67  2  0  0  0  0
 66137  1  0  0  0  0
 67 68  1  0  0  0  0
 67138  1  0  0  0  0
 68 69  1  0  0  0  0
 70 71  1  0  0  0  0
 70 88  1  0  0  0  0
 71 72  2  0  0  0  0
 72 73  1  0  0  0  0
 72 87  1  0  0  0  0
 73 74  1  0  0  0  0
 73 82  2  0  0  0  0
 74 75  1  0  0  0  0
 74 80  2  0  0  0  0
 75 76  1  0  0  0  0
 75 77  2  0  0  0  0
 77 78  1  0  0  0  0
 77139  1  0  0  0  0
 78 79  2  0  0  0  0
 78140  1  0  0  0  0
 79 80  1  0  0  0  0
 79141  1  0  0  0  0
 80 81  1  0  0  0  0
 82 83  1  0  0  0  0
 82 86  1  0  0  0  0
 83 84  2  0  0  0  0
 83142  1  0  0  0  0
 84 85  1  0  0  0  0
 84143  1  0  0  0  0
 85 86  1  0  0  0  0
 86144  1  0  0  0  0
 87 88  2  0  0  0  0
 87145  1  0  0  0  0
 88146  1  0  0  0  0
 89 90  2  0  0  0  0
 89147  1  0  0  0  0
 90148  1  0  0  0  0
 91 92  1  0  0  0  0
 91149  1  0  0  0  0
 92150  1  0  0  0  0
M  END
$$$$
