1_6_6114
 OpenBabel04152300273D

149160  0  0  1  0  0  0  0  0999 V2000
   -1.6402    3.5101   -7.6760 C   0  0  0  0  0  0  0  0  0  0  0  0
   -1.1884    2.0567   -7.8092 C   0  0  0  0  0  0  0  0  0  0  0  0
   -0.3584    1.4228   -6.6302 C   0  0  2  0  0  0  0  0  0  0  0  0
   -1.0006    1.6831   -5.2700 N   0  0  0  0  0  0  0  0  0  0  0  0
   -1.1151    1.5369   -3.9184 C   0  0  0  0  0  0  0  0  0  0  0  0
   -2.1983    1.1483   -3.4517 O   0  0  0  0  0  0  0  0  0  0  0  0
   -0.0863    1.6363   -2.8673 C   0  0  1  0  0  0  0  0  0  0  0  0
    1.0235    0.6917   -3.2803 C   0  0  1  0  0  0  0  0  0  0  0  0
    0.4805   -0.5996   -4.0807 C   0  0  0  0  0  0  0  0  0  0  0  0
    1.2103   -1.4226   -4.6187 O   0  0  0  0  0  0  0  0  0  0  0  0
   -0.8913   -0.7989   -3.9955 O   0  0  0  0  0  0  0  0  0  0  0  0
   -1.7279   -1.3479   -5.0817 C   0  0  0  0  0  0  0  0  0  0  0  0
   -3.1350   -0.5922   -5.4585 C   0  0  0  0  0  0  0  0  0  0  0  0
   -3.1249    0.7834   -5.8875 O   0  0  0  0  0  0  0  0  0  0  0  0
   -3.7930    2.0289   -5.4911 C   0  0  0  0  0  0  0  0  0  0  0  0
   -4.0161    2.7044   -4.0829 C   0  0  0  0  0  0  0  0  0  0  0  0
   -4.8980    2.1175   -3.1453 O   0  0  0  0  0  0  0  0  0  0  0  0
   -5.6089    1.0251   -3.6644 C   0  0  0  0  0  0  0  0  0  0  0  0
   -6.5120    1.3385   -4.8697 C   0  0  0  0  0  0  0  0  0  0  0  0
   -6.4384    2.6544   -5.3945 O   0  0  0  0  0  0  0  0  0  0  0  0
   -6.9725    3.8113   -4.7758 C   0  0  0  0  0  0  0  0  0  0  0  0
   -7.0658    4.0415   -3.2549 C   0  0  0  0  0  0  0  0  0  0  0  0
   -7.4329    2.9383   -2.4282 O   0  0  0  0  0  0  0  0  0  0  0  0
   -8.5520    2.2548   -2.7583 C   0  0  0  0  0  0  0  0  0  0  0  0
   -9.3729    2.5537   -3.5796 O   0  0  0  0  0  0  0  0  0  0  0  0
   -8.4286    0.9143   -2.1177 C   0  0  0  0  0  0  0  0  0  0  0  0
   -8.7710   -0.2010   -2.8997 C   0  0  0  0  0  0  0  0  0  0  0  0
   -8.6060   -1.4833   -2.3973 C   0  0  0  0  0  0  0  0  0  0  0  0
   -8.1998   -1.6433   -1.0678 C   0  0  0  0  0  0  0  0  0  0  0  0
   -8.7146   -2.8436   -0.3789 C   0  0  0  0  0  0  0  0  0  0  0  0
  -10.1008   -2.7236    0.2018 C   0  0  0  0  0  0  0  0  0  0  0  0
  -10.8367   -3.6188    0.8024 N   0  0  0  0  0  0  0  0  0  0  0  0
  -12.0269   -2.9710    1.1141 C   0  0  0  0  0  0  0  0  0  0  0  0
  -13.1289   -3.4751    1.7103 C   0  0  0  0  0  0  0  0  0  0  0  0
  -14.2730   -2.5347    1.9493 C   0  0  0  0  0  0  0  0  0  0  0  0
  -15.0532   -2.0241    0.9022 C   0  0  0  0  0  0  0  0  0  0  0  0
  -14.7829   -2.3519   -0.3707 F   0  0  0  0  0  0  0  0  0  0  0  0
  -16.0917   -1.1211    1.1387 C   0  0  0  0  0  0  0  0  0  0  0  0
  -16.3942   -0.7353    2.4430 C   0  0  0  0  0  0  0  0  0  0  0  0
  -15.6431   -1.2431    3.5008 C   0  0  0  0  0  0  0  0  0  0  0  0
  -14.5884   -2.1212    3.2491 C   0  0  0  0  0  0  0  0  0  0  0  0
  -13.8736   -2.5606    4.2958 F   0  0  0  0  0  0  0  0  0  0  0  0
  -13.2255   -4.8332    2.1598 C   0  0  0  0  0  0  0  0  0  0  0  0
  -14.2789   -5.4577    2.7979 C   0  0  0  0  0  0  0  0  0  0  0  0
  -13.8835   -6.7643    3.0990 C   0  0  0  0  0  0  0  0  0  0  0  0
  -12.6110   -6.9722    2.5870 C   0  0  0  0  0  0  0  0  0  0  0  0
  -12.2150   -5.7742    2.0231 N   0  0  0  0  0  0  0  0  0  0  0  0
  -11.8203   -8.1768    2.6095 C   0  0  0  0  0  0  0  0  0  0  0  0
  -12.4437   -9.3967    3.2226 C   0  0  0  0  0  0  0  0  0  0  0  0
  -11.9944   -9.9330    4.4352 C   0  0  0  0  0  0  0  0  0  0  0  0
  -10.9468   -9.3894    5.0734 F   0  0  0  0  0  0  0  0  0  0  0  0
  -12.5887  -11.0649    4.9942 C   0  0  0  0  0  0  0  0  0  0  0  0
  -13.6805  -11.6609    4.3650 C   0  0  0  0  0  0  0  0  0  0  0  0
  -14.1625  -11.1273    3.1719 C   0  0  0  0  0  0  0  0  0  0  0  0
  -13.5384  -10.0168    2.6053 C   0  0  0  0  0  0  0  0  0  0  0  0
  -14.0299   -9.5418    1.4507 F   0  0  0  0  0  0  0  0  0  0  0  0
  -10.5727   -8.3115    2.0927 C   0  0  0  0  0  0  0  0  0  0  0  0
   -9.7833   -7.3760    1.4342 N   0  0  0  0  0  0  0  0  0  0  0  0
   -8.6607   -7.9906    1.1404 C   0  0  0  0  0  0  0  0  0  0  0  0
   -7.4577   -7.4743    0.3917 C   0  0  0  0  0  0  0  0  0  0  0  0
   -6.2758   -8.3404    0.1481 C   0  0  0  0  0  0  0  0  0  0  0  0
   -6.3469   -9.4612   -0.6870 C   0  0  0  0  0  0  0  0  0  0  0  0
   -7.5001   -9.7793   -1.2936 F   0  0  0  0  0  0  0  0  0  0  0  0
   -5.2479  -10.3011   -0.8813 C   0  0  0  0  0  0  0  0  0  0  0  0
   -4.0340  -10.0142   -0.2599 C   0  0  0  0  0  0  0  0  0  0  0  0
   -3.9324   -8.8936    0.5609 C   0  0  0  0  0  0  0  0  0  0  0  0
   -5.0469   -8.0794    0.7683 C   0  0  0  0  0  0  0  0  0  0  0  0
   -4.9098   -7.0220    1.5819 F   0  0  0  0  0  0  0  0  0  0  0  0
   -7.4646   -6.1990   -0.0402 C   0  0  0  0  0  0  0  0  0  0  0  0
   -6.4069   -5.5340   -0.7997 C   0  0  0  0  0  0  0  0  0  0  0  0
   -6.7450   -4.2455   -0.9899 C   0  0  0  0  0  0  0  0  0  0  0  0
   -8.0537   -4.0103   -0.3849 C   0  0  0  0  0  0  0  0  0  0  0  0
   -8.4156   -5.2256    0.1313 N   0  0  0  0  0  0  0  0  0  0  0  0
   -8.5991   -9.3805    1.6107 C   0  0  0  0  0  0  0  0  0  0  0  0
   -9.8033   -9.5386    2.1411 C   0  0  0  0  0  0  0  0  0  0  0  0
  -11.9117   -1.6049    0.6720 C   0  0  0  0  0  0  0  0  0  0  0  0
  -10.7541   -1.4066    0.0707 C   0  0  0  0  0  0  0  0  0  0  0  0
   -7.7479   -0.5458   -0.3155 C   0  0  0  0  0  0  0  0  0  0  0  0
   -7.8556    0.7394   -0.8489 C   0  0  0  0  0  0  0  0  0  0  0  0
    2.0211    1.8322   -3.7627 C   0  0  2  0  0  0  0  0  0  0  0  0
    2.6182    2.4215   -2.4819 C   0  0  0  0  0  0  0  0  0  0  0  0
    1.6470    3.1152   -1.8616 C   0  0  0  0  0  0  0  0  0  0  0  0
    0.4469    3.0657   -2.7655 C   0  0  1  0  0  0  0  0  0  0  0  0
    1.2146    3.1368   -4.0650 C   0  0  0  0  0  0  0  0  0  0  0  0
    1.1208    1.5540   -6.8517 C   0  0  0  0  0  0  0  0  0  0  0  0
    1.9212    0.4047   -6.7651 C   0  0  0  0  0  0  0  0  0  0  0  0
    3.3078    0.4769   -6.8212 C   0  0  0  0  0  0  0  0  0  0  0  0
    3.9113    1.6954   -7.0959 C   0  0  0  0  0  0  0  0  0  0  0  0
    3.1238    2.8177   -7.3519 C   0  0  0  0  0  0  0  0  0  0  0  0
    1.7355    2.7499   -7.2280 C   0  0  0  0  0  0  0  0  0  0  0  0
   -2.7364    3.5702   -7.6710 H   0  0  0  0  0  0  0  0  0  0  0  0
   -1.3329    4.0929   -8.5484 H   0  0  0  0  0  0  0  0  0  0  0  0
   -1.2632    3.9982   -6.7741 H   0  0  0  0  0  0  0  0  0  0  0  0
   -2.0932    1.4528   -7.9642 H   0  0  0  0  0  0  0  0  0  0  0  0
   -0.6354    1.9506   -8.7505 H   0  0  0  0  0  0  0  0  0  0  0  0
   -0.5467    0.3552   -6.7840 H   0  0  0  0  0  0  0  0  0  0  0  0
   -1.9138    1.3603   -5.5012 H   0  0  0  0  0  0  0  0  0  0  0  0
   -0.5103    1.3168   -1.9035 H   0  0  0  0  0  0  0  0  0  0  0  0
    1.4589    0.2307   -2.3811 H   0  0  0  0  0  0  0  0  0  0  0  0
   -1.1221   -1.4525   -5.9839 H   0  0  0  0  0  0  0  0  0  0  0  0
   -2.0122   -2.3574   -4.7616 H   0  0  0  0  0  0  0  0  0  0  0  0
   -3.4419   -1.1175   -6.3751 H   0  0  0  0  0  0  0  0  0  0  0  0
   -3.9044   -0.8695   -4.7517 H   0  0  0  0  0  0  0  0  0  0  0  0
   -3.0886    2.7845   -5.8465 H   0  0  0  0  0  0  0  0  0  0  0  0
   -4.5719    2.2143   -6.2222 H   0  0  0  0  0  0  0  0  0  0  0  0
   -3.1064    2.9739   -3.5384 H   0  0  0  0  0  0  0  0  0  0  0  0
   -4.3847    3.7198   -4.2653 H   0  0  0  0  0  0  0  0  0  0  0  0
   -4.8881    0.2626   -3.8869 H   0  0  0  0  0  0  0  0  0  0  0  0
   -6.1416    0.5374   -2.8593 H   0  0  0  0  0  0  0  0  0  0  0  0
   -6.1621    0.6749   -5.6755 H   0  0  0  0  0  0  0  0  0  0  0  0
   -7.5426    1.0347   -4.7583 H   0  0  0  0  0  0  0  0  0  0  0  0
   -6.3088    4.6131   -5.1367 H   0  0  0  0  0  0  0  0  0  0  0  0
   -7.9278    4.0316   -5.2542 H   0  0  0  0  0  0  0  0  0  0  0  0
   -6.0952    4.3882   -2.8784 H   0  0  0  0  0  0  0  0  0  0  0  0
   -7.7552    4.8703   -3.0618 H   0  0  0  0  0  0  0  0  0  0  0  0
   -9.1632   -0.0780   -3.9067 H   0  0  0  0  0  0  0  0  0  0  0  0
   -8.9268   -2.3405   -2.9868 H   0  0  0  0  0  0  0  0  0  0  0  0
  -16.6540   -0.7226    0.2990 H   0  0  0  0  0  0  0  0  0  0  0  0
  -17.2088   -0.0415    2.6348 H   0  0  0  0  0  0  0  0  0  0  0  0
  -15.8647   -0.9612    4.5259 H   0  0  0  0  0  0  0  0  0  0  0  0
  -15.2293   -5.0065    3.0480 H   0  0  0  0  0  0  0  0  0  0  0  0
  -14.4880   -7.4920    3.6218 H   0  0  0  0  0  0  0  0  0  0  0  0
  -11.3196   -5.6008    1.5779 H   0  0  0  0  0  0  0  0  0  0  0  0
  -12.1934  -11.4710    5.9205 H   0  0  0  0  0  0  0  0  0  0  0  0
  -14.1557  -12.5347    4.8030 H   0  0  0  0  0  0  0  0  0  0  0  0
  -15.0233  -11.5632    2.6734 H   0  0  0  0  0  0  0  0  0  0  0  0
   -5.3501  -11.1782   -1.5145 H   0  0  0  0  0  0  0  0  0  0  0  0
   -3.1727  -10.6607   -0.4120 H   0  0  0  0  0  0  0  0  0  0  0  0
   -2.9935   -8.6462    1.0487 H   0  0  0  0  0  0  0  0  0  0  0  0
   -5.4949   -5.9892   -1.1502 H   0  0  0  0  0  0  0  0  0  0  0  0
   -6.1473   -3.5127   -1.5076 H   0  0  0  0  0  0  0  0  0  0  0  0
   -9.2888   -5.3901    0.6258 H   0  0  0  0  0  0  0  0  0  0  0  0
   -7.8138  -10.1054    1.5352 H   0  0  0  0  0  0  0  0  0  0  0  0
  -10.1284  -10.4711    2.5725 H   0  0  0  0  0  0  0  0  0  0  0  0
  -12.6537   -0.8292    0.7632 H   0  0  0  0  0  0  0  0  0  0  0  0
  -10.4301   -0.4964   -0.3885 H   0  0  0  0  0  0  0  0  0  0  0  0
   -7.4367   -0.6728    0.7204 H   0  0  0  0  0  0  0  0  0  0  0  0
   -7.5259    1.5958   -0.2644 H   0  0  0  0  0  0  0  0  0  0  0  0
    2.7747    1.5759   -4.4910 H   0  0  0  0  0  0  0  0  0  0  0  0
    3.6524    2.3485   -2.1908 H   0  0  0  0  0  0  0  0  0  0  0  0
    1.7314    3.7091   -0.9645 H   0  0  0  0  0  0  0  0  0  0  0  0
   -0.3028    3.8473   -2.6134 H   0  0  0  0  0  0  0  0  0  0  0  0
    0.5540    3.1782   -4.9196 H   0  0  0  0  0  0  0  0  0  0  0  0
    1.8183    4.0516   -4.1565 H   0  0  0  0  0  0  0  0  0  0  0  0
    1.4682   -0.5717   -6.6206 H   0  0  0  0  0  0  0  0  0  0  0  0
    3.8980   -0.4119   -6.6138 H   0  0  0  0  0  0  0  0  0  0  0  0
    4.9936    1.7682   -7.1141 H   0  0  0  0  0  0  0  0  0  0  0  0
    3.5928    3.7576   -7.6254 H   0  0  0  0  0  0  0  0  0  0  0  0
    1.1454    3.6432   -7.4123 H   0  0  0  0  0  0  0  0  0  0  0  0
  1  2  1  0  0  0  0
