1_6_2579
 OpenBabel04152301373D

130139  0  0  0  0  0  0  0  0999 V2000
    1.7021   -1.2026    0.9381 C   0  0  0  0  0  0  0  0  0  0  0  0
    0.8496   -2.0017    0.0212 C   0  0  0  0  0  0  0  0  0  0  0  0
    0.9668   -3.3305   -0.0187 N   0  0  0  0  0  0  0  0  0  0  0  0
    0.0856   -3.7073   -0.9519 N   0  0  0  0  0  0  0  0  0  0  0  0
   -0.6040   -2.6700   -1.5272 C   0  0  0  0  0  0  0  0  0  0  0  0
   -1.5689   -2.9324   -2.6455 C   0  0  0  0  0  0  0  0  0  0  0  0
   -3.0375   -2.8296   -2.2509 C   0  0  0  0  0  0  0  0  0  0  0  0
   -3.7551   -1.6818   -2.9220 C   0  0  0  0  0  0  0  0  0  0  0  0
   -4.5280   -1.8213   -3.8594 O   0  0  0  0  0  0  0  0  0  0  0  0
   -3.4406   -0.4984   -2.3405 O   0  0  0  0  0  0  0  0  0  0  0  0
   -4.1630    0.6795   -2.7632 C   0  0  0  0  0  0  0  0  0  0  0  0
   -3.1846    1.7824   -3.1700 C   0  0  0  0  0  0  0  0  0  0  0  0
   -2.9125    1.9148   -4.5643 O   0  0  0  0  0  0  0  0  0  0  0  0
   -2.5398    0.7597   -5.3127 C   0  0  0  0  0  0  0  0  0  0  0  0
   -1.2430    0.0715   -4.8898 C   0  0  0  0  0  0  0  0  0  0  0  0
   -0.0286    0.7516   -5.1669 O   0  0  0  0  0  0  0  0  0  0  0  0
    0.1554    2.0165   -4.5377 C   0  0  0  0  0  0  0  0  0  0  0  0
   -0.1725    3.1875   -5.4737 C   0  0  0  0  0  0  0  0  0  0  0  0
    0.6538    3.2782   -6.6368 O   0  0  0  0  0  0  0  0  0  0  0  0
    0.4957    2.2186   -7.5813 C   0  0  0  0  0  0  0  0  0  0  0  0
    1.7724    1.3879   -7.7567 C   0  0  0  0  0  0  0  0  0  0  0  0
    2.4617    1.1833   -6.5227 O   0  0  0  0  0  0  0  0  0  0  0  0
    3.2225    2.2409   -6.1505 C   0  0  0  0  0  0  0  0  0  0  0  0
    3.4398    3.2517   -6.7968 O   0  0  0  0  0  0  0  0  0  0  0  0
    3.8949    1.9643   -4.8644 C   0  0  0  0  0  0  0  0  0  0  0  0
    4.6882    2.9981   -4.3591 C   0  0  0  0  0  0  0  0  0  0  0  0
    5.7715    2.6738   -3.5699 C   0  0  0  0  0  0  0  0  0  0  0  0
    6.0245    1.3229   -3.3111 C   0  0  0  0  0  0  0  0  0  0  0  0
    7.4369    0.9684   -3.2117 C   0  0  0  0  0  0  0  0  0  0  0  0
    8.1462    1.1497   -1.9311 C   0  0  0  0  0  0  0  0  0  0  0  0
    9.1899    1.8792   -1.6968 N   0  0  0  0  0  0  0  0  0  0  0  0
    9.5649    1.5964   -0.3899 C   0  0  0  0  0  0  0  0  0  0  0  0
   10.7668    1.9611    0.1307 C   0  0  0  0  0  0  0  0  0  0  0  0
   11.4315    1.2241    1.2497 C   0  0  0  0  0  0  0  0  0  0  0  0
   12.3677    1.8636    2.0743 C   0  0  0  0  0  0  0  0  0  0  0  0
   12.5833    3.1837    1.9736 F   0  0  0  0  0  0  0  0  0  0  0  0
   13.1491    1.1577    2.9958 C   0  0  0  0  0  0  0  0  0  0  0  0
   12.9963   -0.2177    3.1399 C   0  0  0  0  0  0  0  0  0  0  0  0
   12.0729   -0.8819    2.3451 C   0  0  0  0  0  0  0  0  0  0  0  0
   11.3318   -0.1726    1.3985 C   0  0  0  0  0  0  0  0  0  0  0  0
   10.5672   -0.9098    0.5793 F   0  0  0  0  0  0  0  0  0  0  0  0
   11.4369    2.9708   -0.6352 C   0  0  0  0  0  0  0  0  0  0  0  0
   11.1461    4.2738   -0.9893 C   0  0  0  0  0  0  0  0  0  0  0  0
   11.7679    4.4726   -2.2548 C   0  0  0  0  0  0  0  0  0  0  0  0
   12.3836    3.2696   -2.5998 C   0  0  0  0  0  0  0  0  0  0  0  0
   12.5164    2.6131   -1.4026 N   0  0  0  0  0  0  0  0  0  0  0  0
   12.6731    2.6799   -3.8867 C   0  0  0  0  0  0  0  0  0  0  0  0
   12.5518    3.5810   -5.0805 C   0  0  0  0  0  0  0  0  0  0  0  0
   11.4183    3.6084   -5.9056 C   0  0  0  0  0  0  0  0  0  0  0  0
   10.3936    2.7699   -5.6984 F   0  0  0  0  0  0  0  0  0  0  0  0
   11.2793    4.5488   -6.9304 C   0  0  0  0  0  0  0  0  0  0  0  0
   12.2620    5.5153   -7.1280 C   0  0  0  0  0  0  0  0  0  0  0  0
   13.3845    5.5256   -6.3033 C   0  0  0  0  0  0  0  0  0  0  0  0
   13.5246    4.5632   -5.2998 C   0  0  0  0  0  0  0  0  0  0  0  0
   14.6053    4.6359   -4.5061 F   0  0  0  0  0  0  0  0  0  0  0  0
   12.7352    1.3338   -4.1036 C   0  0  0  0  0  0  0  0  0  0  0  0
   12.4117    0.7819   -5.3347 N   0  0  0  0  0  0  0  0  0  0  0  0
   11.9696   -0.4134   -5.0592 C   0  0  0  0  0  0  0  0  0  0  0  0
   10.9100   -1.1200   -5.8154 C   0  0  0  0  0  0  0  0  0  0  0  0
   11.1188   -2.4250   -6.4775 C   0  0  0  0  0  0  0  0  0  0  0  0
   12.3567   -2.7766   -7.0263 C   0  0  0  0  0  0  0  0  0  0  0  0
   13.3501   -1.8792   -7.0967 F   0  0  0  0  0  0  0  0  0  0  0  0
   12.6283   -4.0771   -7.4713 C   0  0  0  0  0  0  0  0  0  0  0  0
   11.6564   -5.0703   -7.3821 C   0  0  0  0  0  0  0  0  0  0  0  0
   10.4162   -4.7538   -6.8463 C   0  0  0  0  0  0  0  0  0  0  0  0
   10.1652   -3.4577   -6.3907 C   0  0  0  0  0  0  0  0  0  0  0  0
    8.9834   -3.2658   -5.7862 F   0  0  0  0  0  0  0  0  0  0  0  0
    9.7259   -0.5253   -5.5479 C   0  0  0  0  0  0  0  0  0  0  0  0
    8.4612   -0.6474   -6.2508 C   0  0  0  0  0  0  0  0  0  0  0  0
    7.5140    0.0181   -5.5584 C   0  0  0  0  0  0  0  0  0  0  0  0
    8.0906    0.5014   -4.2974 C   0  0  0  0  0  0  0  0  0  0  0  0
    9.4250    0.2707   -4.4571 N   0  0  0  0  0  0  0  0  0  0  0  0
   12.3099   -0.9130   -3.7351 C   0  0  0  0  0  0  0  0  0  0  0  0
   12.7671    0.2092   -3.1779 C   0  0  0  0  0  0  0  0  0  0  0  0
    8.5396    0.7402    0.1590 C   0  0  0  0  0  0  0  0  0  0  0  0
    7.6368    0.4176   -0.7678 C   0  0  0  0  0  0  0  0  0  0  0  0
    5.0624    0.3369   -3.5472 C   0  0  0  0  0  0  0  0  0  0  0  0
    3.9791    0.6633   -4.3473 C   0  0  0  0  0  0  0  0  0  0  0  0
   -0.1373   -1.5303   -0.8873 C   0  0  0  0  0  0  0  0  0  0  0  0
   -0.5032   -0.1090   -1.0590 C   0  0  0  0  0  0  0  0  0  0  0  0
    2.3434   -1.8574    1.4903 H   0  0  0  0  0  0  0  0  0  0  0  0
    1.0812   -0.6557    1.6166 H   0  0  0  0  0  0  0  0  0  0  0  0
    2.2959   -0.5190    0.3680 H   0  0  0  0  0  0  0  0  0  0  0  0
   -0.0560   -4.6483   -1.2043 H   0  0  0  0  0  0  0  0  0  0  0  0
   -1.3907   -3.9204   -3.0156 H   0  0  0  0  0  0  0  0  0  0  0  0
   -1.3974   -2.1731   -3.3796 H   0  0  0  0  0  0  0  0  0  0  0  0
   -3.0962   -2.6943   -1.1911 H   0  0  0  0  0  0  0  0  0  0  0  0
   -3.5159   -3.7327   -2.5679 H   0  0  0  0  0  0  0  0  0  0  0  0
   -4.7730    1.0283   -1.9563 H   0  0  0  0  0  0  0  0  0  0  0  0
   -4.7762    0.4297   -3.6037 H   0  0  0  0  0  0  0  0  0  0  0  0
   -2.2556    1.5905   -2.6751 H   0  0  0  0  0  0  0  0  0  0  0  0
   -3.6601    2.6985   -2.8879 H   0  0  0  0  0  0  0  0  0  0  0  0
   -2.4346    1.0537   -6.3361 H   0  0  0  0  0  0  0  0  0  0  0  0
   -3.3147    0.0428   -5.1378 H   0  0  0  0  0  0  0  0  0  0  0  0
   -1.2032   -0.8746   -5.3880 H   0  0  0  0  0  0  0  0  0  0  0  0
   -1.2932    0.0197   -3.8222 H   0  0  0  0  0  0  0  0  0  0  0  0
    1.1757    2.1005   -4.2264 H   0  0  0  0  0  0  0  0  0  0  0  0
   -0.5137    2.0672   -3.7043 H   0  0  0  0  0  0  0  0  0  0  0  0
   -0.0663    4.0962   -4.9189 H   0  0  0  0  0  0  0  0  0  0  0  0
   -1.1689    3.0201   -5.8259 H   0  0  0  0  0  0  0  0  0  0  0  0
    0.2289    2.6405   -8.5277 H   0  0  0  0  0  0  0  0  0  0  0  0
   -0.2666    1.5657   -7.2105 H   0  0  0  0  0  0  0  0  0  0  0  0
    2.4245    1.8986   -8.4341 H   0  0  0  0  0  0  0  0  0  0  0  0
    1.4882    0.4282   -8.1351 H   0  0  0  0  0  0  0  0  0  0  0  0
    4.4678    3.9835   -4.5722 H   0  0  0  0  0  0  0  0  0  0  0  0
    6.3806    3.4099   -3.1798 H   0  0  0  0  0  0  0  0  0  0  0  0
   13.8426    1.6601    3.5717 H   0  0  0  0  0  0  0  0  0  0  0  0
   13.5624   -0.7372    3.8289 H   0  0  0  0  0  0  0  0  0  0  0  0
   11.9343   -1.8988    2.4537 H   0  0  0  0  0  0  0  0  0  0  0  0
   10.5942    4.9592   -0.4501 H   0  0  0  0  0  0  0  0  0  0  0  0
   11.7638    5.3418   -2.8111 H   0  0  0  0  0  0  0  0  0  0  0  0
   13.2450    2.0035   -1.1442 H   0  0  0  0  0  0  0  0  0  0  0  0
   10.4477    4.5268   -7.5411 H   0  0  0  0  0  0  0  0  0  0  0  0
   12.1597    6.2169   -7.8779 H   0  0  0  0  0  0  0  0  0  0  0  0
   14.1133    6.2446   -6.4335 H   0  0  0  0  0  0  0  0  0  0  0  0
   13.5546   -4.3003   -7.8677 H   0  0  0  0  0  0  0  0  0  0  0  0
   11.8557   -6.0283   -7.7099 H   0  0  0  0  0  0  0  0  0  0  0  0
    9.6805   -5.4749   -6.7846 H   0  0  0  0  0  0  0  0  0  0  0  0
    8.3117   -1.1590   -7.1345 H   0  0  0  0  0  0  0  0  0  0  0  0
    6.5397    0.1642   -5.8658 H   0  0  0  0  0  0  0  0  0  0  0  0
   10.1105    0.6365   -3.8525 H   0  0  0  0  0  0  0  0  0  0  0  0
   12.2225   -1.8627   -3.3408 H   0  0  0  0  0  0  0  0  0  0  0  0
   13.1041    0.2734   -2.2046 H   0  0  0  0  0  0  0  0  0  0  0  0
    8.5096    0.4201    1.1396 H   0  0  0  0  0  0  0  0  0  0  0  0
    6.8033   -0.1856   -0.6876 H   0  0  0  0  0  0  0  0  0  0  0  0
    5.1560   -0.6059   -3.1380 H   0  0  0  0  0  0  0  0  0  0  0  0
    3.2499   -0.0359   -4.5581 H   0  0  0  0  0  0  0  0  0  0  0  0
    0.0718    0.4912   -0.3852 H   0  0  0  0  0  0  0  0  0  0  0  0
   -1.5448    0.0189   -0.8504 H   0  0  0  0  0  0  0  0  0  0  0  0
   -0.3015    0.1921   -2.0658 H   0  0  0  0  0  0  0  0  0  0  0  0
  1  2  1  0  0  0  0
  1 81  1  0  0  0  0
  1 82  1  0  0  0  0
  1 83  1  0  0  0  0
  2  3  2  0  0  0  0
  2 79  1  0  0  0  0
  3  4  1  0  0  0  0
  4  5  1  0  0  0  0
  4 84  1  0  0  0  0
  5  6  1  0  0  0  0
  5 79  2  0  0  0  0
  6  7  1  0  0  0  0
  6 85  1  0  0  0  0
  6 86  1  0  0  0  0
  7  8  1  0  0  0  0
  7 87  1  0  0  0  0
  7 88  1  0  0  0  0
  8  9  2  0  0  0  0
  8 10  1  0  0  0  0
 10 11  1  0  0  0  0
 11 12  1  0  0  0  0
 11 89  1  0  0  0  0
 11 90  1  0  0  0  0
 12 13  1  0  0  0  0
 12 91  1  0  0  0  0
 12 92  1  0  0  0  0
 13 14  1  0  0  0  0
 14 15  1  0  0  0  0
 14 93  1  0  0  0  0
 14 94  1  0  0  0  0
 15 16  1  0  0  0  0
 15 95  1  0  0  0  0
 15 96  1  0  0  0  0
 16 17  1  0  0  0  0
 17 18  1  0  0  0  0
 17 97  1  0  0  0  0
 17 98  1  0  0  0  0
 18 19  1  0  0  0  0
 18 99  1  0  0  0  0
 18100  1  0  0  0  0
 19 20  1  0  0  0  0
 20 21  1  0  0  0  0
 20101  1  0  0  0  0
 20102  1  0  0  0  0
 21 22  1  0  0  0  0
 21103  1  0  0  0  0
 21104  1  0  0  0  0
 22 23  1  0  0  0  0
 23 24  2  0  0  0  0
 23 25  1  0  0  0  0
 25 26  1  0  0  0  0
 25 78  2  0  0  0  0
 26 27  2  0  0  0  0
 26105  1  0  0  0  0
 27 28  1  0  0  0  0
 27106  1  0  0  0  0
 28 29  1  0  0  0  0
 28 77  2  0  0  0  0
 29 30  1  0  0  0  0
 29 71  2  0  0  0  0
 30 31  2  0  0  0  0
 30 76  1  0  0  0  0
 31 32  1  0  0  0  0
 32 33  2  0  0  0  0
 32 75  1  0  0  0  0
 33 34  1  0  0  0  0
 33 42  1  0  0  0  0
 34 35  1  0  0  0  0
 34 40  2  0  0  0  0
 35 36  1  0  0  0  0
 35 37  2  0  0  0  0
 37 38  1  0  0  0  0
 37107  1  0  0  0  0
 38 39  2  0  0  0  0
 38108  1  0  0  0  0
 39 40  1  0  0  0  0
 39109  1  0  0  0  0
 40 41  1  0  0  0  0
 42 43  2  0  0  0  0
 42 46  1  0  0  0  0
 43 44  1  0  0  0  0
 43110  1  0  0  0  0
 44 45  2  0  0  0  0
 44111  1  0  0  0  0
 45 46  1  0  0  0  0
 45 47  1  0  0  0  0
 46112  1  0  0  0  0
 47 48  1  0  0  0  0
 47 56  2  0  0  0  0
 48 49  1  0  0  0  0
 48 54  2  0  0  0  0
 49 50  1  0  0  0  0
 49 51  2  0  0  0  0
 51 52  1  0  0  0  0
 51113  1  0  0  0  0
 52 53  2  0  0  0  0
 52114  1  0  0  0  0
 53 54  1  0  0  0  0
 53115  1  0  0  0  0
 54 55  1  0  0  0  0
 56 57  1  0  0  0  0
 56 74  1  0  0  0  0
 57 58  2  0  0  0  0
 58 59  1  0  0  0  0
 58 73  1  0  0  0  0
 59 60  1  0  0  0  0
 59 68  2  0  0  0  0
 60 61  1  0  0  0  0
 60 66  2  0  0  0  0
 61 62  1  0  0  0  0
 61 63  2  0  0  0  0
 63 64  1  0  0  0  0
 63116  1  0  0  0  0
 64 65  2  0  0  0  0
 64117  1  0  0  0  0
 65 66  1  0  0  0  0
 65118  1  0  0  0  0
 66 67  1  0  0  0  0
 68 69  1  0  0  0  0
 68 72  1  0  0  0  0
 69 70  2  0  0  0  0
 69119  1  0  0  0  0
 70 71  1  0  0  0  0
 70120  1  0  0  0  0
 71 72  1  0  0  0  0
 72121  1  0  0  0  0
 73 74  2  0  0  0  0
 73122  1  0  0  0  0
 74123  1  0  0  0  0
 75 76  2  0  0  0  0
 75124  1  0  0  0  0
 76125  1  0  0  0  0
 77 78  1  0  0  0  0
 77126  1  0  0  0  0
 78127  1  0  0  0  0
 79 80  1  0  0  0  0
 80128  1  0  0  0  0
 80129  1  0  0  0  0
 80130  1  0  0  0  0
M  END
$$$$
