2_0_6247
 OpenBabel04152301373D

150161  0  0  1  0  0  0  0  0999 V2000
    1.0066   -0.3559   -0.1803 O   0  0  0  0  0  0  0  0  0  0  0  0
    2.1500   -0.4526    0.2528 C   0  0  0  0  0  0  0  0  0  0  0  0
    3.2686   -1.0678   -0.5555 C   0  0  0  0  0  0  0  0  0  0  0  0
    3.6583   -0.1614   -1.7128 C   0  0  0  0  0  0  0  0  0  0  0  0
    4.6406    0.9236   -1.2934 C   0  0  0  0  0  0  0  0  0  0  0  0
    5.7705    0.6053   -0.9159 O   0  0  0  0  0  0  0  0  0  0  0  0
    4.2548    2.2506   -1.4050 N   0  0  0  0  0  0  0  0  0  0  0  0
    2.8708    2.7138   -1.4103 C   0  0  0  0  0  0  0  0  0  0  0  0
    2.6411    3.6936   -0.2665 C   0  0  0  0  0  0  0  0  0  0  0  0
    3.6536    4.8326   -0.2902 C   0  0  0  0  0  0  0  0  0  0  0  0
    5.1314    4.3560   -0.3460 C   0  0  2  0  0  0  0  0  0  0  0  0
    5.6639    3.7310    0.9541 C   0  0  0  0  0  0  0  0  0  0  0  0
    5.6609    4.7002    2.1164 C   0  0  0  0  0  0  0  0  0  0  0  0
    6.0371    6.1349    1.8350 C   0  0  0  0  0  0  0  0  0  0  0  0
    6.1851    6.8973    2.7886 O   0  0  0  0  0  0  0  0  0  0  0  0
    5.9750    6.5474    0.5101 N   0  0  0  0  0  0  0  0  0  0  0  0
    5.5508    7.9192    0.2227 C   0  0  0  0  0  0  0  0  0  0  0  0
    6.3083    9.0159    0.9245 C   0  0  0  0  0  0  0  0  0  0  0  0
    7.6698    9.2176    0.6977 C   0  0  0  0  0  0  0  0  0  0  0  0
    8.3119   10.2348    1.3883 C   0  0  0  0  0  0  0  0  0  0  0  0
    7.7005   11.0589    2.2670 N   0  0  0  0  0  0  0  0  0  0  0  0
    6.3889   10.8349    2.4874 C   0  0  0  0  0  0  0  0  0  0  0  0
    5.6580    9.8487    1.8447 C   0  0  0  0  0  0  0  0  0  0  0  0
    6.0342    5.5818   -0.5939 C   0  0  0  0  0  0  0  0  0  0  0  0
    5.2763    3.3088   -1.4761 C   0  0  0  0  0  0  0  0  0  0  0  0
    2.5422    0.0155    1.4834 N   0  0  0  0  0  0  0  0  0  0  0  0
    1.6132    0.6514    2.3961 C   0  0  0  0  0  0  0  0  0  0  0  0
    2.0169    0.5009    3.8648 C   0  0  0  0  0  0  0  0  0  0  0  0
    3.4434    0.9441    4.2136 C   0  0  0  0  0  0  0  0  0  0  0  0
    3.8080    2.3509    3.7508 C   0  0  0  0  0  0  0  0  0  0  0  0
    3.1192    3.4805    4.5091 C   0  0  0  0  0  0  0  0  0  0  0  0
    3.6358    3.7119    5.9219 C   0  0  0  0  0  0  0  0  0  0  0  0
    5.0614    4.0035    6.0017 N   0  0  0  0  0  0  0  0  0  0  0  0
    5.7442    4.9680    6.7062 C   0  0  0  0  0  0  0  0  0  0  0  0
    6.9686    5.0282    6.6159 O   0  0  0  0  0  0  0  0  0  0  0  0
    5.0241    5.9458    7.5543 C   0  0  0  0  0  0  0  0  0  0  0  0
    5.4633    7.2736    7.5834 C   0  0  0  0  0  0  0  0  0  0  0  0
    4.7468    8.2304    8.3101 C   0  0  0  0  0  0  0  0  0  0  0  0
    3.5487    7.8817    8.9542 C   0  0  0  0  0  0  0  0  0  0  0  0
    2.7039    8.8887    9.6497 C   0  0  0  0  0  0  0  0  0  0  0  0
    2.3694    8.7223   11.1101 C   0  0  0  0  0  0  0  0  0  0  0  0
    1.5621    9.4299   11.8608 N   0  0  0  0  0  0  0  0  0  0  0  0
    1.5356    8.7899   13.0942 C   0  0  0  0  0  0  0  0  0  0  0  0
    0.8941    9.1550   14.2302 C   0  0  0  0  0  0  0  0  0  0  0  0
    1.0143    8.2358   15.4143 C   0  0  0  0  0  0  0  0  0  0  0  0
    2.2255    8.0951   16.1110 C   0  0  0  0  0  0  0  0  0  0  0  0
    2.3272    7.2041   17.1814 C   0  0  0  0  0  0  0  0  0  0  0  0
    1.2107    6.4777   17.5931 C   0  0  0  0  0  0  0  0  0  0  0  0
   -0.0073    6.6367   16.9337 C   0  0  0  0  0  0  0  0  0  0  0  0
   -0.1039    7.5044   15.8439 C   0  0  0  0  0  0  0  0  0  0  0  0
    0.1161   10.3560   14.3691 C   0  0  0  0  0  0  0  0  0  0  0  0
   -0.4875   10.8676   15.5047 C   0  0  0  0  0  0  0  0  0  0  0  0
   -1.1507   12.0487   15.1522 C   0  0  0  0  0  0  0  0  0  0  0  0
   -0.9269   12.2897   13.8063 C   0  0  0  0  0  0  0  0  0  0  0  0
   -0.1535   11.2413   13.3378 N   0  0  0  0  0  0  0  0  0  0  0  0
   -1.3821   13.3942   13.0041 C   0  0  0  0  0  0  0  0  0  0  0  0
   -2.1994   14.4626   13.6693 C   0  0  0  0  0  0  0  0  0  0  0  0
   -3.5790   14.5697   13.4357 C   0  0  0  0  0  0  0  0  0  0  0  0
   -4.3207   15.5800   14.0504 C   0  0  0  0  0  0  0  0  0  0  0  0
   -3.6979   16.4691   14.9261 C   0  0  0  0  0  0  0  0  0  0  0  0
   -2.3328   16.3544   15.1858 C   0  0  0  0  0  0  0  0  0  0  0  0
   -1.5840   15.3607   14.5544 C   0  0  0  0  0  0  0  0  0  0  0  0
   -1.1083   13.5627   11.6878 C   0  0  0  0  0  0  0  0  0  0  0  0
   -0.3698   12.7489   10.8398 N   0  0  0  0  0  0  0  0  0  0  0  0
   -0.4077   13.3304    9.6661 C   0  0  0  0  0  0  0  0  0  0  0  0
    0.2379   12.9064    8.3788 C   0  0  0  0  0  0  0  0  0  0  0  0
    0.0926   13.7310    7.1528 C   0  0  0  0  0  0  0  0  0  0  0  0
    0.7840   14.9474    7.0412 C   0  0  0  0  0  0  0  0  0  0  0  0
    0.6454   15.7379    5.8990 C   0  0  0  0  0  0  0  0  0  0  0  0
   -0.1637   15.3088    4.8484 C   0  0  0  0  0  0  0  0  0  0  0  0
   -0.8417   14.0938    4.9409 C   0  0  0  0  0  0  0  0  0  0  0  0
   -0.7229   13.3111    6.0918 C   0  0  0  0  0  0  0  0  0  0  0  0
    0.9945   11.7939    8.3537 C   0  0  0  0  0  0  0  0  0  0  0  0
    1.6765   11.2670    7.1772 C   0  0  0  0  0  0  0  0  0  0  0  0
    2.3342   10.1471    7.5181 C   0  0  0  0  0  0  0  0  0  0  0  0
    2.1527    9.9008    8.9508 C   0  0  0  0  0  0  0  0  0  0  0  0
    1.3199   10.9140    9.3568 N   0  0  0  0  0  0  0  0  0  0  0  0
   -1.1937   14.5719    9.6306 C   0  0  0  0  0  0  0  0  0  0  0  0
   -1.5678   14.6867   10.8972 C   0  0  0  0  0  0  0  0  0  0  0  0
    2.3699    7.6145   12.9786 C   0  0  0  0  0  0  0  0  0  0  0  0
    2.9867    7.5821   11.8075 C   0  0  0  0  0  0  0  0  0  0  0  0
    3.1415    6.5405    8.9405 C   0  0  0  0  0  0  0  0  0  0  0  0
    3.9202    5.5708    8.3193 C   0  0  0  0  0  0  0  0  0  0  0  0
    2.9444   -2.0113   -0.9423 H   0  0  0  0  0  0  0  0  0  0  0  0
    4.1196   -1.1990    0.0798 H   0  0  0  0  0  0  0  0  0  0  0  0
    2.7750    0.3044   -2.0972 H   0  0  0  0  0  0  0  0  0  0  0  0
    4.1366   -0.7661   -2.4547 H   0  0  0  0  0  0  0  0  0  0  0  0
    2.2166    1.8750   -1.2943 H   0  0  0  0  0  0  0  0  0  0  0  0
    2.6705    3.2067   -2.3386 H   0  0  0  0  0  0  0  0  0  0  0  0
    2.7297    3.1698    0.6623 H   0  0  0  0  0  0  0  0  0  0  0  0
    1.6631    4.1134   -0.3773 H   0  0  0  0  0  0  0  0  0  0  0  0
    3.5216    5.4199    0.5944 H   0  0  0  0  0  0  0  0  0  0  0  0
    3.4725    5.3924   -1.1839 H   0  0  0  0  0  0  0  0  0  0  0  0
    6.6677    3.4000    0.7879 H   0  0  0  0  0  0  0  0  0  0  0  0
    5.0150    2.9197    1.2102 H   0  0  0  0  0  0  0  0  0  0  0  0
    6.3490    4.3266    2.8457 H   0  0  0  0  0  0  0  0  0  0  0  0
    4.6384    4.7450    2.4284 H   0  0  0  0  0  0  0  0  0  0  0  0
    4.5210    8.0062    0.4998 H   0  0  0  0  0  0  0  0  0  0  0  0
    5.7431    8.0634   -0.8199 H   0  0  0  0  0  0  0  0  0  0  0  0
    8.1875    8.6236    0.0313 H   0  0  0  0  0  0  0  0  0  0  0  0
    9.3210   10.3707    1.2202 H   0  0  0  0  0  0  0  0  0  0  0  0
    5.9019   11.4321    3.1739 H   0  0  0  0  0  0  0  0  0  0  0  0
    4.6518    9.7296    2.0404 H   0  0  0  0  0  0  0  0  0  0  0  0
    5.7169    6.0670   -1.4932 H   0  0  0  0  0  0  0  0  0  0  0  0
    7.0435    5.2354   -0.6730 H   0  0  0  0  0  0  0  0  0  0  0  0
    5.1873    3.8077   -2.4185 H   0  0  0  0  0  0  0  0  0  0  0  0
    6.2328    2.8426   -1.3638 H   0  0  0  0  0  0  0  0  0  0  0  0
    3.4836   -0.0841    1.7537 H   0  0  0  0  0  0  0  0  0  0  0  0
    0.6477    0.2104    2.2614 H   0  0  0  0  0  0  0  0  0  0  0  0
    1.6106    1.6975    2.1714 H   0  0  0  0  0  0  0  0  0  0  0  0
    1.9204   -0.5318    4.1277 H   0  0  0  0  0  0  0  0  0  0  0  0
    1.3681    1.1518    4.4128 H   0  0  0  0  0  0  0  0  0  0  0  0
    4.1259    0.2569    3.7588 H   0  0  0  0  0  0  0  0  0  0  0  0
    3.5027    0.9540    5.2819 H   0  0  0  0  0  0  0  0  0  0  0  0
    3.5463    2.4379    2.7170 H   0  0  0  0  0  0  0  0  0  0  0  0
    4.8558    2.4633    3.9362 H   0  0  0  0  0  0  0  0  0  0  0  0
    2.0756    3.2521    4.5700 H   0  0  0  0  0  0  0  0  0  0  0  0
    3.3252    4.3776    3.9635 H   0  0  0  0  0  0  0  0  0  0  0  0
    3.4417    2.8311    6.4976 H   0  0  0  0  0  0  0  0  0  0  0  0
    3.1262    4.5754    6.2956 H   0  0  0  0  0  0  0  0  0  0  0  0
    5.6316    3.4108    5.4606 H   0  0  0  0  0  0  0  0  0  0  0  0
    6.3152    7.5471    7.0692 H   0  0  0  0  0  0  0  0  0  0  0  0
    5.1007    9.1978    8.3732 H   0  0  0  0  0  0  0  0  0  0  0  0
    3.0462    8.6541   15.8299 H   0  0  0  0  0  0  0  0  0  0  0  0
    3.2293    7.0833   17.6679 H   0  0  0  0  0  0  0  0  0  0  0  0
    1.2859    5.8219   18.3864 H   0  0  0  0  0  0  0  0  0  0  0  0
   -0.8379    6.1129   17.2511 H   0  0  0  0  0  0  0  0  0  0  0  0
   -1.0044    7.6087   15.3506 H   0  0  0  0  0  0  0  0  0  0  0  0
   -0.4543   10.4504   16.4480 H   0  0  0  0  0  0  0  0  0  0  0  0
   -1.7108   12.6393   15.7866 H   0  0  0  0  0  0  0  0  0  0  0  0
    0.1586   11.1398   12.4096 H   0  0  0  0  0  0  0  0  0  0  0  0
   -4.0472   13.8987   12.8068 H   0  0  0  0  0  0  0  0  0  0  0  0
   -5.3304   15.6691   13.8568 H   0  0  0  0  0  0  0  0  0  0  0  0
   -4.2484   17.2131   15.3826 H   0  0  0  0  0  0  0  0  0  0  0  0
   -1.8764   17.0043   15.8448 H   0  0  0  0  0  0  0  0  0  0  0  0
   -0.5715   15.2858   14.7395 H   0  0  0  0  0  0  0  0  0  0  0  0
    1.3991   15.2595    7.8089 H   0  0  0  0  0  0  0  0  0  0  0  0
    1.1421   16.6401    5.8325 H   0  0  0  0  0  0  0  0  0  0  0  0
   -0.2611   15.8906    4.0016 H   0  0  0  0  0  0  0  0  0  0  0  0
   -1.4321   13.7724    4.1579 H   0  0  0  0  0  0  0  0  0  0  0  0
   -1.2378   12.4194    6.1617 H   0  0  0  0  0  0  0  0  0  0  0  0
    1.6568   11.6871    6.2348 H   0  0  0  0  0  0  0  0  0  0  0  0
    2.8804    9.5544    6.8736 H   0  0  0  0  0  0  0  0  0  0  0  0
    0.9875   11.0015   10.2794 H   0  0  0  0  0  0  0  0  0  0  0  0
   -1.3999   15.1908    8.8309 H   0  0  0  0  0  0  0  0  0  0  0  0
   -2.1165   15.4761   11.2724 H   0  0  0  0  0  0  0  0  0  0  0  0
    2.4712    6.8957   13.7122 H   0  0  0  0  0  0  0  0  0  0  0  0
    3.7110    6.9283   11.4713 H   0  0  0  0  0  0  0  0  0  0  0  0
    2.2556    6.2705    9.3957 H   0  0  0  0  0  0  0  0  0  0  0  0
    3.6811    4.5724    8.4244 H   0  0  0  0  0  0  0  0  0  0  0  0
  1  2  2  0  0  0  0
  2  3  1  0  0  0  0
  2 26  1  0  0  0  0
  3  4  1  0  0  0  0
  3 84  1  0  0  0  0
  3 85  1  0  0  0  0
  4  5  1  0  0  0  0
  4 86  1  0  0  0  0
  4 87  1  0  0  0  0
  5  6  2  0  0  0  0
  5  7  1  0  0  0  0
  7  8  1  0  0  0  0
  7 25  1  0  0  0  0
  8  9  1  0  0  0  0
  8 88  1  0  0  0  0
  8 89  1  0  0  0  0
  9 10  1  0  0  0  0
  9 90  1  0  0  0  0
  9 91  1  0  0  0  0
 10 92  1  0  0  0  0
 10 93  1  0  0  0  0
 11 10  1  1  0  0  0
 11 12  1  0  0  0  0
 11 24  1  0  0  0  0
 11 25  1  0  0  0  0
 12 13  1  0  0  0  0
 12 94  1  0  0  0  0
 12 95  1  0  0  0  0
 13 14  1  0  0  0  0
 13 96  1  0  0  0  0
 13 97  1  0  0  0  0
 14 16  1  0  0  0  0
 14 15  2  0  0  0  0
 16 24  1  0  0  0  0
 16 17  1  0  0  0  0
 17 18  1  0  0  0  0
 17 98  1  0  0  0  0
 17 99  1  0  0  0  0
 18 19  1  0  0  0  0
 18 23  2  0  0  0  0
 19 20  2  0  0  0  0
 19100  1  0  0  0  0
 20 21  1  0  0  0  0
 20101  1  0  0  0  0
 21 22  2  0  0  0  0
 22 23  1  0  0  0  0
 22102  1  0  0  0  0
 23103  1  0  0  0  0
 24104  1  0  0  0  0
 24105  1  0  0  0  0
 25106  1  0  0  0  0
 25107  1  0  0  0  0
 26 27  1  0  0  0  0
 26108  1  0  0  0  0
 27 28  1  0  0  0  0
 27109  1  0  0  0  0
 27110  1  0  0  0  0
 28 29  1  0  0  0  0
 28111  1  0  0  0  0
 28112  1  0  0  0  0
 29 30  1  0  0  0  0
 29113  1  0  0  0  0
 29114  1  0  0  0  0
 30 31  1  0  0  0  0
 30115  1  0  0  0  0
 30116  1  0  0  0  0
 31 32  1  0  0  0  0
 31117  1  0  0  0  0
 31118  1  0  0  0  0
 32 33  1  0  0  0  0
 32119  1  0  0  0  0
 32120  1  0  0  0  0
 33 34  1  0  0  0  0
 33121  1  0  0  0  0
 34 35  2  0  0  0  0
 34 36  1  0  0  0  0
 36 37  1  0  0  0  0
 36 83  2  0  0  0  0
 37 38  2  0  0  0  0
 37122  1  0  0  0  0
 38 39  1  0  0  0  0
 38123  1  0  0  0  0
 39 40  1  0  0  0  0
 39 82  2  0  0  0  0
 40 41  1  0  0  0  0
 40 76  2  0  0  0  0
 41 42  2  0  0  0  0
 41 81  1  0  0  0  0
 42 43  1  0  0  0  0
 43 44  2  0  0  0  0
 43 80  1  0  0  0  0
 44 45  1  0  0  0  0
 44 51  1  0  0  0  0
 45 46  1  0  0  0  0
 45 50  2  0  0  0  0
 46 47  2  0  0  0  0
 46124  1  0  0  0  0
 47 48  1  0  0  0  0
 47125  1  0  0  0  0
 48 49  2  0  0  0  0
 48126  1  0  0  0  0
 49 50  1  0  0  0  0
 49127  1  0  0  0  0
 50128  1  0  0  0  0
 51 52  2  0  0  0  0
 51 55  1  0  0  0  0
 52 53  1  0  0  0  0
 52129  1  0  0  0  0
 53 54  2  0  0  0  0
 53130  1  0  0  0  0
 54 55  1  0  0  0  0
 54 56  1  0  0  0  0
 55131  1  0  0  0  0
 56 57  1  0  0  0  0
 56 63  2  0  0  0  0
 57 58  1  0  0  0  0
 57 62  2  0  0  0  0
 58 59  2  0  0  0  0
 58132  1  0  0  0  0
 59 60  1  0  0  0  0
 59133  1  0  0  0  0
 60 61  2  0  0  0  0
 60134  1  0  0  0  0
 61 62  1  0  0  0  0
 61135  1  0  0  0  0
 62136  1  0  0  0  0
 63 64  1  0  0  0  0
 63 79  1  0  0  0  0
 64 65  2  0  0  0  0
 65 66  1  0  0  0  0
 65 78  1  0  0  0  0
 66 67  1  0  0  0  0
 66 73  2  0  0  0  0
 67 68  1  0  0  0  0
 67 72  2  0  0  0  0
 68 69  2  0  0  0  0
 68137  1  0  0  0  0
 69 70  1  0  0  0  0
 69138  1  0  0  0  0
 70 71  2  0  0  0  0
 70139  1  0  0  0  0
 71 72  1  0  0  0  0
 71140  1  0  0  0  0
 72141  1  0  0  0  0
 73 74  1  0  0  0  0
 73 77  1  0  0  0  0
 74 75  2  0  0  0  0
 74142  1  0  0  0  0
 75 76  1  0  0  0  0
 75143  1  0  0  0  0
 76 77  1  0  0  0  0
 77144  1  0  0  0  0
 78 79  2  0  0  0  0
 78145  1  0  0  0  0
 79146  1  0  0  0  0
 80 81  2  0  0  0  0
 80147  1  0  0  0  0
 81148  1  0  0  0  0
 82 83  1  0  0  0  0
 82149  1  0  0  0  0
 83150  1  0  0  0  0
M  END
$$$$
