2_0_5048
 OpenBabel04152301353D

141150  0  0  0  0  0  0  0  0999 V2000
    0.7631    0.1696    0.4515 C   0  0  0  0  0  0  0  0  0  0  0  0
    0.4967    0.0746    1.8881 N   0  0  0  0  0  0  0  0  0  0  0  0
    0.1424    1.3582    2.5225 C   0  0  0  0  0  0  0  0  0  0  0  0
   -1.2970    1.7601    2.1303 C   0  0  0  0  0  0  0  0  0  0  0  0
   -2.3279    0.6571    1.8326 C   0  0  0  0  0  0  0  0  0  0  0  0
   -3.2867    1.2250    2.8737 C   0  0  0  0  0  0  0  0  0  0  0  0
   -2.2186    2.2489    3.2804 C   0  0  0  0  0  0  0  0  0  0  0  0
    0.9367   -1.1129    2.4702 C   0  0  0  0  0  0  0  0  0  0  0  0
    1.6491   -1.8551    1.7823 O   0  0  0  0  0  0  0  0  0  0  0  0
    0.5619   -1.5135    3.7539 N   0  0  0  0  0  0  0  0  0  0  0  0
   -0.5676   -0.9533    4.5080 C   0  0  0  0  0  0  0  0  0  0  0  0
   -1.8295   -1.7832    4.8125 C   0  0  0  0  0  0  0  0  0  0  0  0
   -2.4286   -1.6086    5.8811 O   0  0  0  0  0  0  0  0  0  0  0  0
   -2.4375   -2.5915    3.9023 N   0  0  0  0  0  0  0  0  0  0  0  0
   -2.1975   -2.7473    2.4841 C   0  0  0  0  0  0  0  0  0  0  0  0
   -2.5942   -4.1105    1.9440 C   0  0  0  0  0  0  0  0  0  0  0  0
   -4.1095   -4.3241    1.8775 C   0  0  0  0  0  0  0  0  0  0  0  0
   -4.9030   -3.2893    1.0666 C   0  0  0  0  0  0  0  0  0  0  0  0
   -4.4254   -3.0461   -0.3672 C   0  0  0  0  0  0  0  0  0  0  0  0
   -4.2271   -4.3002   -1.2099 C   0  0  0  0  0  0  0  0  0  0  0  0
   -5.4046   -5.1508   -1.2397 N   0  0  0  0  0  0  0  0  0  0  0  0
   -5.9835   -5.7962   -2.2998 C   0  0  0  0  0  0  0  0  0  0  0  0
   -7.0563   -6.3788   -2.1598 O   0  0  0  0  0  0  0  0  0  0  0  0
   -5.3304   -5.7638   -3.6229 C   0  0  0  0  0  0  0  0  0  0  0  0
   -6.1101   -5.4806   -4.7463 C   0  0  0  0  0  0  0  0  0  0  0  0
   -5.5050   -5.3861   -5.9993 C   0  0  0  0  0  0  0  0  0  0  0  0
   -4.1140   -5.5316   -6.1276 C   0  0  0  0  0  0  0  0  0  0  0  0
   -3.4478   -5.3693   -7.4429 C   0  0  0  0  0  0  0  0  0  0  0  0
   -2.7401   -6.5324   -8.0803 C   0  0  0  0  0  0  0  0  0  0  0  0
   -2.0674   -6.5738   -9.2025 N   0  0  0  0  0  0  0  0  0  0  0  0
   -1.5837   -7.8721   -9.3038 C   0  0  0  0  0  0  0  0  0  0  0  0
   -0.8757   -8.4359  -10.3110 C   0  0  0  0  0  0  0  0  0  0  0  0
   -0.4802   -9.8794  -10.1596 C   0  0  0  0  0  0  0  0  0  0  0  0
   -1.4360  -10.9076  -10.2011 C   0  0  0  0  0  0  0  0  0  0  0  0
   -1.0478  -12.2418  -10.0600 C   0  0  0  0  0  0  0  0  0  0  0  0
    0.3008  -12.5650   -9.9173 C   0  0  0  0  0  0  0  0  0  0  0  0
    1.2623  -11.5559   -9.9034 C   0  0  0  0  0  0  0  0  0  0  0  0
    0.8737  -10.2194  -10.0119 C   0  0  0  0  0  0  0  0  0  0  0  0
   -0.4722   -7.7376  -11.5023 C   0  0  0  0  0  0  0  0  0  0  0  0
    0.1976   -8.2346  -12.6066 C   0  0  0  0  0  0  0  0  0  0  0  0
    0.4343   -7.1740  -13.4864 C   0  0  0  0  0  0  0  0  0  0  0  0
   -0.1488   -6.0315  -12.9618 C   0  0  0  0  0  0  0  0  0  0  0  0
   -0.6953   -6.3903  -11.7412 N   0  0  0  0  0  0  0  0  0  0  0  0
   -0.2002   -4.7099  -13.5323 C   0  0  0  0  0  0  0  0  0  0  0  0
    0.4269   -4.5041  -14.8832 C   0  0  0  0  0  0  0  0  0  0  0  0
    1.6022   -3.7532  -15.0384 C   0  0  0  0  0  0  0  0  0  0  0  0
    2.1705   -3.5859  -16.3030 C   0  0  0  0  0  0  0  0  0  0  0  0
    1.5941   -4.1992  -17.4151 C   0  0  0  0  0  0  0  0  0  0  0  0
    0.4424   -4.9701  -17.2690 C   0  0  0  0  0  0  0  0  0  0  0  0
   -0.1463   -5.1112  -16.0120 C   0  0  0  0  0  0  0  0  0  0  0  0
   -0.8025   -3.6400  -12.9578 C   0  0  0  0  0  0  0  0  0  0  0  0
   -1.4772   -3.5637  -11.7462 N   0  0  0  0  0  0  0  0  0  0  0  0
   -1.8632   -2.3161  -11.6298 C   0  0  0  0  0  0  0  0  0  0  0  0
   -2.6647   -1.6706  -10.5338 C   0  0  0  0  0  0  0  0  0  0  0  0
   -3.0087   -0.2251  -10.5920 C   0  0  0  0  0  0  0  0  0  0  0  0
   -3.9121    0.2569  -11.5516 C   0  0  0  0  0  0  0  0  0  0  0  0
   -4.2068    1.6205  -11.6255 C   0  0  0  0  0  0  0  0  0  0  0  0
   -3.6310    2.5098  -10.7197 C   0  0  0  0  0  0  0  0  0  0  0  0
   -2.7521    2.0404   -9.7454 C   0  0  0  0  0  0  0  0  0  0  0  0
   -2.4309    0.6826   -9.6902 C   0  0  0  0  0  0  0  0  0  0  0  0
   -3.0771   -2.4208   -9.4947 C   0  0  0  0  0  0  0  0  0  0  0  0
   -3.8649   -1.9372   -8.3659 C   0  0  0  0  0  0  0  0  0  0  0  0
   -4.0533   -2.9454   -7.4996 C   0  0  0  0  0  0  0  0  0  0  0  0
   -3.4352   -4.1601   -8.0364 C   0  0  0  0  0  0  0  0  0  0  0  0
   -2.8771   -3.7524   -9.2217 N   0  0  0  0  0  0  0  0  0  0  0  0
   -1.4509   -1.4512  -12.7440 C   0  0  0  0  0  0  0  0  0  0  0  0
   -0.8483   -2.3173  -13.5464 C   0  0  0  0  0  0  0  0  0  0  0  0
   -1.9953   -8.5726   -8.1076 C   0  0  0  0  0  0  0  0  0  0  0  0
   -2.7712   -7.8108   -7.3511 C   0  0  0  0  0  0  0  0  0  0  0  0
   -3.3468   -5.8364   -4.9932 C   0  0  0  0  0  0  0  0  0  0  0  0
   -3.9601   -6.0054   -3.7560 C   0  0  0  0  0  0  0  0  0  0  0  0
    1.2340   -2.7498    4.3532 C   0  0  0  0  0  0  0  0  0  0  0  0
    0.8151   -4.0390    3.6106 C   0  0  0  0  0  0  0  0  0  0  0  0
    2.7773   -2.6272    4.3228 C   0  0  0  0  0  0  0  0  0  0  0  0
    0.8883   -2.9878    5.8509 C   0  0  0  0  0  0  0  0  0  0  0  0
    0.3973    1.1048    0.0820 H   0  0  0  0  0  0  0  0  0  0  0  0
    0.2695   -0.6323   -0.0566 H   0  0  0  0  0  0  0  0  0  0  0  0
    1.8172    0.1058    0.2792 H   0  0  0  0  0  0  0  0  0  0  0  0
    0.8237    2.1155    2.1951 H   0  0  0  0  0  0  0  0  0  0  0  0
    0.2011    1.2533    3.5857 H   0  0  0  0  0  0  0  0  0  0  0  0
   -0.9715    2.4095    1.3446 H   0  0  0  0  0  0  0  0  0  0  0  0
   -1.9815   -0.3300    2.0574 H   0  0  0  0  0  0  0  0  0  0  0  0
   -2.6652    0.5031    0.8289 H   0  0  0  0  0  0  0  0  0  0  0  0
   -3.5513    0.5360    3.6484 H   0  0  0  0  0  0  0  0  0  0  0  0
   -4.2693    1.5433    2.5943 H   0  0  0  0  0  0  0  0  0  0  0  0
   -2.5326    3.2672    3.1838 H   0  0  0  0  0  0  0  0  0  0  0  0
   -1.8552    2.2768    4.2864 H   0  0  0  0  0  0  0  0  0  0  0  0
   -0.8971   -0.0940    3.9621 H   0  0  0  0  0  0  0  0  0  0  0  0
   -0.1454   -0.8155    5.4815 H   0  0  0  0  0  0  0  0  0  0  0  0
   -3.1540   -3.1602    4.2663 H   0  0  0  0  0  0  0  0  0  0  0  0
   -1.1535   -2.6018    2.3001 H   0  0  0  0  0  0  0  0  0  0  0  0
   -2.8051   -2.0233    1.9826 H   0  0  0  0  0  0  0  0  0  0  0  0
   -2.1738   -4.8619    2.5793 H   0  0  0  0  0  0  0  0  0  0  0  0
   -2.2234   -4.1721    0.9422 H   0  0  0  0  0  0  0  0  0  0  0  0
   -4.4855   -4.3125    2.8792 H   0  0  0  0  0  0  0  0  0  0  0  0
   -4.2463   -5.2548    1.3676 H   0  0  0  0  0  0  0  0  0  0  0  0
   -4.8544   -2.3572    1.5897 H   0  0  0  0  0  0  0  0  0  0  0  0
   -5.8904   -3.6915    0.9759 H   0  0  0  0  0  0  0  0  0  0  0  0
   -3.4903   -2.5281   -0.3206 H   0  0  0  0  0  0  0  0  0  0  0  0
   -5.2020   -2.4876   -0.8467 H   0  0  0  0  0  0  0  0  0  0  0  0
   -3.4112   -4.8601   -0.8028 H   0  0  0  0  0  0  0  0  0  0  0  0
   -4.0313   -3.9860   -2.2138 H   0  0  0  0  0  0  0  0  0  0  0  0
   -5.8510   -5.2822   -0.3721 H   0  0  0  0  0  0  0  0  0  0  0  0
   -7.1282   -5.3420   -4.6499 H   0  0  0  0  0  0  0  0  0  0  0  0
   -6.0821   -5.2084   -6.8362 H   0  0  0  0  0  0  0  0  0  0  0  0
   -2.4324  -10.6756  -10.3368 H   0  0  0  0  0  0  0  0  0  0  0  0
   -1.7598  -12.9889  -10.0614 H   0  0  0  0  0  0  0  0  0  0  0  0
    0.5874  -13.5518   -9.8219 H   0  0  0  0  0  0  0  0  0  0  0  0
    2.2617  -11.7968   -9.8129 H   0  0  0  0  0  0  0  0  0  0  0  0
    1.5879   -9.4750   -9.9833 H   0  0  0  0  0  0  0  0  0  0  0  0
    0.4744   -9.2176  -12.7550 H   0  0  0  0  0  0  0  0  0  0  0  0
    0.9549   -7.2321  -14.3756 H   0  0  0  0  0  0  0  0  0  0  0  0
   -1.1715   -5.7795  -11.1334 H   0  0  0  0  0  0  0  0  0  0  0  0
    2.0488   -3.3224  -14.2138 H   0  0  0  0  0  0  0  0  0  0  0  0
    3.0180   -3.0078  -16.4148 H   0  0  0  0  0  0  0  0  0  0  0  0
    2.0210   -4.0820  -18.3473 H   0  0  0  0  0  0  0  0  0  0  0  0
    0.0253   -5.4362  -18.0899 H   0  0  0  0  0  0  0  0  0  0  0  0
   -1.0103   -5.6665  -15.9111 H   0  0  0  0  0  0  0  0  0  0  0  0
   -4.3620   -0.4007  -12.2075 H   0  0  0  0  0  0  0  0  0  0  0  0
   -4.8516    1.9698  -12.3516 H   0  0  0  0  0  0  0  0  0  0  0  0
   -3.8555    3.5158  -10.7706 H   0  0  0  0  0  0  0  0  0  0  0  0
   -2.3385    2.6964   -9.0645 H   0  0  0  0  0  0  0  0  0  0  0  0
   -1.7630    0.3434   -8.9804 H   0  0  0  0  0  0  0  0  0  0  0  0
   -4.2201   -0.9750   -8.2517 H   0  0  0  0  0  0  0  0  0  0  0  0
   -4.5535   -2.8758   -6.5996 H   0  0  0  0  0  0  0  0  0  0  0  0
   -2.3805   -4.3566   -9.8197 H   0  0  0  0  0  0  0  0  0  0  0  0
   -1.5931   -0.4367  -12.8689 H   0  0  0  0  0  0  0  0  0  0  0  0
   -0.4609   -2.0794  -14.4729 H   0  0  0  0  0  0  0  0  0  0  0  0
   -1.7205   -9.5395   -7.8739 H   0  0  0  0  0  0  0  0  0  0  0  0
   -3.2676   -8.0507   -6.4787 H   0  0  0  0  0  0  0  0  0  0  0  0
   -2.3230   -5.9357   -5.0769 H   0  0  0  0  0  0  0  0  0  0  0  0
   -3.4056   -6.3079   -2.9399 H   0  0  0  0  0  0  0  0  0  0  0  0
    1.0298   -3.9355    2.5675 H   0  0  0  0  0  0  0  0  0  0  0  0
   -0.2338   -4.2028    3.7444 H   0  0  0  0  0  0  0  0  0  0  0  0
    1.3593   -4.8711    4.0059 H   0  0  0  0  0  0  0  0  0  0  0  0
    3.1021   -2.4603    3.3170 H   0  0  0  0  0  0  0  0  0  0  0  0
    3.2142   -3.5309    4.6934 H   0  0  0  0  0  0  0  0  0  0  0  0
    3.0820   -1.8057    4.9370 H   0  0  0  0  0  0  0  0  0  0  0  0
   -0.1716   -3.0846    5.9613 H   0  0  0  0  0  0  0  0  0  0  0  0
    1.2332   -2.1587    6.4327 H   0  0  0  0  0  0  0  0  0  0  0  0
    1.3655   -3.8838    6.1891 H   0  0  0  0  0  0  0  0  0  0  0  0
  1  2  1  0  0  0  0
  1 76  1  0  0  0  0
  1 77  1  0  0  0  0
  1 78  1  0  0  0  0
  2  3  1  0  0  0  0
  2  8  1  0  0  0  0
  3  4  1  0  0  0  0
  3 79  1  0  0  0  0
  3 80  1  0  0  0  0
  4  5  1  0  0  0  0
  4  7  1  0  0  0  0
  4 81  1  0  0  0  0
  5  6  1  0  0  0  0
  5 82  1  0  0  0  0
  5 83  1  0  0  0  0
  6  7  1  0  0  0  0
  6 84  1  0  0  0  0
  6 85  1  0  0  0  0
  7 86  1  0  0  0  0
  7 87  1  0  0  0  0
  8  9  2  0  0  0  0
  8 10  1  0  0  0  0
 10 11  1  0  0  0  0
 10 72  1  0  0  0  0
 11 12  1  0  0  0  0
 11 88  1  0  0  0  0
 11 89  1  0  0  0  0
 12 13  2  0  0  0  0
 12 14  1  0  0  0  0
 14 15  1  0  0  0  0
 14 90  1  0  0  0  0
 15 16  1  0  0  0  0
 15 91  1  0  0  0  0
 15 92  1  0  0  0  0
 16 17  1  0  0  0  0
 16 93  1  0  0  0  0
 16 94  1  0  0  0  0
 17 18  1  0  0  0  0
 17 95  1  0  0  0  0
 17 96  1  0  0  0  0
 18 19  1  0  0  0  0
 18 97  1  0  0  0  0
 18 98  1  0  0  0  0
 19 20  1  0  0  0  0
 19 99  1  0  0  0  0
 19100  1  0  0  0  0
 20 21  1  0  0  0  0
 20101  1  0  0  0  0
 20102  1  0  0  0  0
 21 22  1  0  0  0  0
 21103  1  0  0  0  0
 22 23  2  0  0  0  0
 22 24  1  0  0  0  0
 24 25  1  0  0  0  0
 24 71  2  0  0  0  0
 25 26  2  0  0  0  0
 25104  1  0  0  0  0
 26 27  1  0  0  0  0
 26105  1  0  0  0  0
 27 28  1  0  0  0  0
 27 70  2  0  0  0  0
 28 29  1  0  0  0  0
 28 64  2  0  0  0  0
 29 30  2  0  0  0  0
 29 69  1  0  0  0  0
 30 31  1  0  0  0  0
 31 32  2  0  0  0  0
 31 68  1  0  0  0  0
 32 33  1  0  0  0  0
 32 39  1  0  0  0  0
 33 34  1  0  0  0  0
 33 38  2  0  0  0  0
 34 35  2  0  0  0  0
 34106  1  0  0  0  0
 35 36  1  0  0  0  0
 35107  1  0  0  0  0
 36 37  2  0  0  0  0
 36108  1  0  0  0  0
 37 38  1  0  0  0  0
 37109  1  0  0  0  0
 38110  1  0  0  0  0
 39 40  2  0  0  0  0
 39 43  1  0  0  0  0
 40 41  1  0  0  0  0
 40111  1  0  0  0  0
 41 42  2  0  0  0  0
 41112  1  0  0  0  0
 42 43  1  0  0  0  0
 42 44  1  0  0  0  0
 43113  1  0  0  0  0
 44 45  1  0  0  0  0
 44 51  2  0  0  0  0
 45 46  1  0  0  0  0
 45 50  2  0  0  0  0
 46 47  2  0  0  0  0
 46114  1  0  0  0  0
 47 48  1  0  0  0  0
 47115  1  0  0  0  0
 48 49  2  0  0  0  0
 48116  1  0  0  0  0
 49 50  1  0  0  0  0
 49117  1  0  0  0  0
 50118  1  0  0  0  0
 51 52  1  0  0  0  0
 51 67  1  0  0  0  0
 52 53  2  0  0  0  0
 53 54  1  0  0  0  0
 53 66  1  0  0  0  0
 54 55  1  0  0  0  0
 54 61  2  0  0  0  0
 55 56  1  0  0  0  0
 55 60  2  0  0  0  0
 56 57  2  0  0  0  0
 56119  1  0  0  0  0
 57 58  1  0  0  0  0
 57120  1  0  0  0  0
 58 59  2  0  0  0  0
 58121  1  0  0  0  0
 59 60  1  0  0  0  0
 59122  1  0  0  0  0
 60123  1  0  0  0  0
 61 62  1  0  0  0  0
 61 65  1  0  0  0  0
 62 63  2  0  0  0  0
 62124  1  0  0  0  0
 63 64  1  0  0  0  0
 63125  1  0  0  0  0
 64 65  1  0  0  0  0
 65126  1  0  0  0  0
 66 67  2  0  0  0  0
 66127  1  0  0  0  0
 67128  1  0  0  0  0
 68 69  2  0  0  0  0
 68129  1  0  0  0  0
 69130  1  0  0  0  0
 70 71  1  0  0  0  0
 70131  1  0  0  0  0
 71132  1  0  0  0  0
 72 73  1  0  0  0  0
 72 74  1  0  0  0  0
 72 75  1  0  0  0  0
 73133  1  0  0  0  0
 73134  1  0  0  0  0
 73135  1  0  0  0  0
 74136  1  0  0  0  0
 74137  1  0  0  0  0
 74138  1  0  0  0  0
 75139  1  0  0  0  0
 75140  1  0  0  0  0
 75141  1  0  0  0  0
M  END
$$$$
