2_0_7713
 OpenBabel04152301373D

131141  0  0  1  0  0  0  0  0999 V2000
    6.5812   21.1636   -2.2283 O   0  0  0  0  0  0  0  0  0  0  0  0
    6.5703   20.2989   -3.0970 C   0  0  0  0  0  0  0  0  0  0  0  0
    7.4548   19.2461   -3.0541 N   0  0  0  0  0  0  0  0  0  0  0  0
    7.7082   18.2269   -4.0614 C   0  0  0  0  0  0  0  0  0  0  0  0
    9.1738   18.1352   -4.4524 C   0  0  0  0  0  0  0  0  0  0  0  0
   10.0965   17.6557   -3.3349 C   0  0  0  0  0  0  0  0  0  0  0  0
    9.7224   16.3050   -2.7163 C   0  0  0  0  0  0  0  0  0  0  0  0
    9.5484   15.1563   -3.7117 C   0  0  0  0  0  0  0  0  0  0  0  0
   10.7445   14.9251   -4.6286 C   0  0  0  0  0  0  0  0  0  0  0  0
   11.9279   14.4920   -3.8973 N   0  0  0  0  0  0  0  0  0  0  0  0
   12.6636   13.3449   -4.0802 C   0  0  0  0  0  0  0  0  0  0  0  0
   13.5153   12.9899   -3.2755 O   0  0  0  0  0  0  0  0  0  0  0  0
   12.3438   12.5015   -5.2490 C   0  0  0  0  0  0  0  0  0  0  0  0
   12.4269   13.0908   -6.5237 C   0  0  0  0  0  0  0  0  0  0  0  0
   11.8757   12.4396   -7.6184 C   0  0  0  0  0  0  0  0  0  0  0  0
   11.2081   11.2441   -7.4105 C   0  0  0  0  0  0  0  0  0  0  0  0
   10.5944   10.6442   -8.4376 F   0  0  0  0  0  0  0  0  0  0  0  0
   11.1801   10.6334   -6.1563 C   0  0  0  0  0  0  0  0  0  0  0  0
   11.8609   11.1916   -5.0756 C   0  0  0  0  0  0  0  0  0  0  0  0
   12.1251   10.5153   -3.8583 N   0  0  0  0  0  0  0  0  0  0  0  0
   12.1788    9.1916   -3.5101 C   0  0  0  0  0  0  0  0  0  0  0  0
   12.4760    8.9059   -2.3476 O   0  0  0  0  0  0  0  0  0  0  0  0
   11.8925    8.0947   -4.5107 C   0  0  1  0  0  0  0  0  0  0  0  0
   12.8841    8.0122   -5.6837 C   0  0  0  0  0  0  0  0  0  0  0  0
   12.3709    6.8602   -6.5390 C   0  0  0  0  0  0  0  0  0  0  0  0
   11.8467    5.6269   -5.3542 S   0  0  0  0  0  0  0  0  0  0  0  0
   10.4469    5.3344   -5.5999 O   0  0  0  0  0  0  0  0  0  0  0  0
   12.8552    4.5966   -5.2758 O   0  0  0  0  0  0  0  0  0  0  0  0
   11.9584    6.6846   -3.9123 C   0  0  0  0  0  0  0  0  0  0  0  0
    5.6190   20.3882   -4.2248 C   0  0  0  0  0  0  0  0  0  0  0  0
    4.9462   19.2450   -4.6552 C   0  0  0  0  0  0  0  0  0  0  0  0
    4.2350   19.2771   -5.8434 C   0  0  0  0  0  0  0  0  0  0  0  0
    4.0210   20.4926   -6.5163 C   0  0  0  0  0  0  0  0  0  0  0  0
    3.0987   20.4945   -7.6803 C   0  0  0  0  0  0  0  0  0  0  0  0
    3.5569   20.8684   -9.0617 C   0  0  0  0  0  0  0  0  0  0  0  0
    2.8809   20.8334  -10.1839 N   0  0  0  0  0  0  0  0  0  0  0  0
    3.7482   21.2896  -11.1685 C   0  0  0  0  0  0  0  0  0  0  0  0
    3.5279   21.4078  -12.5008 C   0  0  0  0  0  0  0  0  0  0  0  0
    4.6543   21.9243  -13.3563 C   0  0  0  0  0  0  0  0  0  0  0  0
    5.7888   21.1394  -13.6174 C   0  0  0  0  0  0  0  0  0  0  0  0
    6.7993   21.6115  -14.4593 C   0  0  0  0  0  0  0  0  0  0  0  0
    6.6725   22.8567  -15.0738 C   0  0  0  0  0  0  0  0  0  0  0  0
    5.5439   23.6390  -14.8363 C   0  0  0  0  0  0  0  0  0  0  0  0
    4.5458   23.1814  -13.9730 C   0  0  0  0  0  0  0  0  0  0  0  0
    2.2813   21.0855  -13.1499 C   0  0  0  0  0  0  0  0  0  0  0  0
    1.9639   21.1660  -14.4957 C   0  0  0  0  0  0  0  0  0  0  0  0
    0.6202   20.8105  -14.6528 C   0  0  0  0  0  0  0  0  0  0  0  0
    0.1192   20.4412  -13.4156 C   0  0  0  0  0  0  0  0  0  0  0  0
    1.1449   20.6259  -12.5013 N   0  0  0  0  0  0  0  0  0  0  0  0
   -1.1982   19.9576  -13.0918 C   0  0  0  0  0  0  0  0  0  0  0  0
   -2.1992   19.8021  -14.2030 C   0  0  0  0  0  0  0  0  0  0  0  0
   -3.3427   20.6143  -14.2754 C   0  0  0  0  0  0  0  0  0  0  0  0
   -4.2924   20.4093  -15.2778 C   0  0  0  0  0  0  0  0  0  0  0  0
   -4.0844   19.4268  -16.2450 C   0  0  0  0  0  0  0  0  0  0  0  0
   -2.9316   18.6439  -16.2094 C   0  0  0  0  0  0  0  0  0  0  0  0
   -1.9994   18.8212  -15.1864 C   0  0  0  0  0  0  0  0  0  0  0  0
   -1.6060   19.5906  -11.8526 C   0  0  0  0  0  0  0  0  0  0  0  0
   -0.9005   19.6152  -10.6584 N   0  0  0  0  0  0  0  0  0  0  0  0
   -1.7449   19.2134   -9.7398 C   0  0  0  0  0  0  0  0  0  0  0  0
   -1.5224   19.0273   -8.2694 C   0  0  0  0  0  0  0  0  0  0  0  0
   -2.6149   18.5516   -7.3803 C   0  0  0  0  0  0  0  0  0  0  0  0
   -3.1396   17.2571   -7.5058 C   0  0  0  0  0  0  0  0  0  0  0  0
   -4.2057   16.8466   -6.7018 C   0  0  0  0  0  0  0  0  0  0  0  0
   -4.7258   17.7068   -5.7354 C   0  0  0  0  0  0  0  0  0  0  0  0
   -4.1893   18.9820   -5.5759 C   0  0  0  0  0  0  0  0  0  0  0  0
   -3.1532   19.4091   -6.4061 C   0  0  0  0  0  0  0  0  0  0  0  0
   -0.3221   19.3436   -7.7533 C   0  0  0  0  0  0  0  0  0  0  0  0
    0.0324   19.2241   -6.3464 C   0  0  0  0  0  0  0  0  0  0  0  0
    1.2711   19.7010   -6.1723 C   0  0  0  0  0  0  0  0  0  0  0  0
    1.8331   20.0758   -7.4754 C   0  0  0  0  0  0  0  0  0  0  0  0
    0.8048   19.8530   -8.3524 N   0  0  0  0  0  0  0  0  0  0  0  0
   -3.0867   18.8992  -10.2442 C   0  0  0  0  0  0  0  0  0  0  0  0
   -2.9316   19.0929  -11.5450 C   0  0  0  0  0  0  0  0  0  0  0  0
    4.9914   21.6271  -10.5079 C   0  0  0  0  0  0  0  0  0  0  0  0
    4.9400   21.3462   -9.2116 C   0  0  0  0  0  0  0  0  0  0  0  0
    4.6021   21.6642   -6.0087 C   0  0  0  0  0  0  0  0  0  0  0  0
    5.4284   21.6071   -4.8810 C   0  0  0  0  0  0  0  0  0  0  0  0
    7.9887   19.1722   -2.2303 H   0  0  0  0  0  0  0  0  0  0  0  0
    7.1355   18.4599   -4.9347 H   0  0  0  0  0  0  0  0  0  0  0  0
    7.4276   17.2834   -3.6420 H   0  0  0  0  0  0  0  0  0  0  0  0
    9.4991   19.1067   -4.7611 H   0  0  0  0  0  0  0  0  0  0  0  0
    9.2362   17.4064   -5.2333 H   0  0  0  0  0  0  0  0  0  0  0  0
   10.0848   18.3907   -2.5574 H   0  0  0  0  0  0  0  0  0  0  0  0
   11.0597   17.5219   -3.7813 H   0  0  0  0  0  0  0  0  0  0  0  0
    8.8000   16.4274   -2.1881 H   0  0  0  0  0  0  0  0  0  0  0  0
   10.5431   16.0299   -2.0873 H   0  0  0  0  0  0  0  0  0  0  0  0
    8.6960   15.3699   -4.3223 H   0  0  0  0  0  0  0  0  0  0  0  0
    9.4351   14.2653   -3.1302 H   0  0  0  0  0  0  0  0  0  0  0  0
   10.9699   15.8393   -5.1369 H   0  0  0  0  0  0  0  0  0  0  0  0
   10.4833   14.1486   -5.3169 H   0  0  0  0  0  0  0  0  0  0  0  0
   12.2392   15.0951   -3.1842 H   0  0  0  0  0  0  0  0  0  0  0  0
   12.8952   14.0025   -6.6442 H   0  0  0  0  0  0  0  0  0  0  0  0
   11.9614   12.8376   -8.5667 H   0  0  0  0  0  0  0  0  0  0  0  0
   10.6490    9.7580   -6.0272 H   0  0  0  0  0  0  0  0  0  0  0  0
   12.3082   11.1238   -3.1063 H   0  0  0  0  0  0  0  0  0  0  0  0
   10.9111    8.3721   -4.8346 H   0  0  0  0  0  0  0  0  0  0  0  0
   13.8728    7.8084   -5.3291 H   0  0  0  0  0  0  0  0  0  0  0  0
   12.9431    8.9297   -6.2311 H   0  0  0  0  0  0  0  0  0  0  0  0
   13.1495    6.4772   -7.1651 H   0  0  0  0  0  0  0  0  0  0  0  0
   11.5795    7.1592   -7.1941 H   0  0  0  0  0  0  0  0  0  0  0  0
   11.1403    6.5118   -3.2447 H   0  0  0  0  0  0  0  0  0  0  0  0
   12.8415    6.5142   -3.3326 H   0  0  0  0  0  0  0  0  0  0  0  0
    4.9780   18.3807   -4.0921 H   0  0  0  0  0  0  0  0  0  0  0  0
    3.8589   18.4009   -6.2382 H   0  0  0  0  0  0  0  0  0  0  0  0
    5.8771   20.2068  -13.1843 H   0  0  0  0  0  0  0  0  0  0  0  0
    7.6406   21.0377  -14.6265 H   0  0  0  0  0  0  0  0  0  0  0  0
    7.4143   23.1989  -15.7044 H   0  0  0  0  0  0  0  0  0  0  0  0
    5.4456   24.5565  -15.2983 H   0  0  0  0  0  0  0  0  0  0  0  0
    3.7208   23.7727  -13.7865 H   0  0  0  0  0  0  0  0  0  0  0  0
    2.6086   21.4412  -15.2531 H   0  0  0  0  0  0  0  0  0  0  0  0
    0.0922   20.8215  -15.5394 H   0  0  0  0  0  0  0  0  0  0  0  0
    1.0766   20.4558  -11.5340 H   0  0  0  0  0  0  0  0  0  0  0  0
   -3.4817   21.3672  -13.5834 H   0  0  0  0  0  0  0  0  0  0  0  0
   -5.1485   20.9850  -15.3030 H   0  0  0  0  0  0  0  0  0  0  0  0
   -4.7849   19.2790  -16.9883 H   0  0  0  0  0  0  0  0  0  0  0  0
   -2.7676   17.9333  -16.9396 H   0  0  0  0  0  0  0  0  0  0  0  0
   -1.1567   18.2265  -15.1527 H   0  0  0  0  0  0  0  0  0  0  0  0
   -2.7360   16.6043   -8.1957 H   0  0  0  0  0  0  0  0  0  0  0  0
   -4.6093   15.9046   -6.8234 H   0  0  0  0  0  0  0  0  0  0  0  0
   -5.5087   17.3983   -5.1380 H   0  0  0  0  0  0  0  0  0  0  0  0
   -4.5578   19.6100   -4.8445 H   0  0  0  0  0  0  0  0  0  0  0  0
   -2.7780   20.3650   -6.3038 H   0  0  0  0  0  0  0  0  0  0  0  0
   -0.5717   18.8357   -5.6053 H   0  0  0  0  0  0  0  0  0  0  0  0
    1.7546   19.7909   -5.2650 H   0  0  0  0  0  0  0  0  0  0  0  0
    0.8669   20.0395   -9.3171 H   0  0  0  0  0  0  0  0  0  0  0  0
   -3.9278   18.6053   -9.7235 H   0  0  0  0  0  0  0  0  0  0  0  0
   -3.6627   18.9122  -12.2506 H   0  0  0  0  0  0  0  0  0  0  0  0
    5.8120   22.0338  -10.9836 H   0  0  0  0  0  0  0  0  0  0  0  0
    5.6777   21.4388   -8.4959 H   0  0  0  0  0  0  0  0  0  0  0  0
    4.4197   22.5702   -6.4680 H   0  0  0  0  0  0  0  0  0  0  0  0
    5.8946   22.4606   -4.5357 H   0  0  0  0  0  0  0  0  0  0  0  0
  1  2  2  0  0  0  0
  2  3  1  0  0  0  0
  2 30  1  0  0  0  0
  3  4  1  0  0  0  0
  3 78  1  0  0  0  0
  4  5  1  0  0  0  0
  4 79  1  0  0  0  0
  4 80  1  0  0  0  0
  5  6  1  0  0  0  0
  5 81  1  0  0  0  0
  5 82  1  0  0  0  0
  6  7  1  0  0  0  0
  6 83  1  0  0  0  0
  6 84  1  0  0  0  0
  7  8  1  0  0  0  0
  7 85  1  0  0  0  0
  7 86  1  0  0  0  0
  8  9  1  0  0  0  0
  8 87  1  0  0  0  0
  8 88  1  0  0  0  0
  9 10  1  0  0  0  0
  9 89  1  0  0  0  0
  9 90  1  0  0  0  0
 10 11  1  0  0  0  0
 10 91  1  0  0  0  0
 11 12  2  0  0  0  0
 11 13  1  0  0  0  0
 13 14  1  0  0  0  0
 13 19  2  0  0  0  0
 14 15  2  0  0  0  0
 14 92  1  0  0  0  0
 15 16  1  0  0  0  0
 15 93  1  0  0  0  0
 16 17  1  0  0  0  0
 16 18  2  0  0  0  0
 18 19  1  0  0  0  0
 18 94  1  0  0  0  0
 19 20  1  0  0  0  0
 20 21  1  0  0  0  0
 20 95  1  0  0  0  0
 21 22  2  0  0  0  0
 23 24  1  0  0  0  0
 23 29  1  0  0  0  0
 23 21  1  0  0  0  0
 23 96  1  6  0  0  0
 24 25  1  0  0  0  0
 24 97  1  0  0  0  0
 24 98  1  0  0  0  0
 25 26  1  0  0  0  0
 25 99  1  0  0  0  0
 25100  1  0  0  0  0
 26 27  2  0  0  0  0
 26 28  2  0  0  0  0
 26 29  1  0  0  0  0
 29101  1  0  0  0  0
 29102  1  0  0  0  0
 30 31  1  0  0  0  0
 30 77  2  0  0  0  0
 31 32  2  0  0  0  0
 31103  1  0  0  0  0
 32 33  1  0  0  0  0
 32104  1  0  0  0  0
 33 34  1  0  0  0  0
 33 76  2  0  0  0  0
 34 35  1  0  0  0  0
 34 70  2  0  0  0  0
 35 36  2  0  0  0  0
 35 75  1  0  0  0  0
 36 37  1  0  0  0  0
 37 38  2  0  0  0  0
 37 74  1  0  0  0  0
 38 39  1  0  0  0  0
 38 45  1  0  0  0  0
 39 40  1  0  0  0  0
 39 44  2  0  0  0  0
 40 41  2  0  0  0  0
 40105  1  0  0  0  0
 41 42  1  0  0  0  0
 41106  1  0  0  0  0
 42 43  2  0  0  0  0
 42107  1  0  0  0  0
 43 44  1  0  0  0  0
 43108  1  0  0  0  0
 44109  1  0  0  0  0
 45 46  2  0  0  0  0
 45 49  1  0  0  0  0
 46 47  1  0  0  0  0
 46110  1  0  0  0  0
 47 48  2  0  0  0  0
 47111  1  0  0  0  0
 48 49  1  0  0  0  0
 48 50  1  0  0  0  0
 49112  1  0  0  0  0
 50 51  1  0  0  0  0
 50 57  2  0  0  0  0
 51 52  1  0  0  0  0
 51 56  2  0  0  0  0
 52 53  2  0  0  0  0
 52113  1  0  0  0  0
 53 54  1  0  0  0  0
 53114  1  0  0  0  0
 54 55  2  0  0  0  0
 54115  1  0  0  0  0
 55 56  1  0  0  0  0
 55116  1  0  0  0  0
 56117  1  0  0  0  0
 57 58  1  0  0  0  0
 57 73  1  0  0  0  0
 58 59  2  0  0  0  0
 59 60  1  0  0  0  0
 59 72  1  0  0  0  0
 60 61  1  0  0  0  0
 60 67  2  0  0  0  0
 61 62  1  0  0  0  0
 61 66  2  0  0  0  0
 62 63  2  0  0  0  0
 62118  1  0  0  0  0
 63 64  1  0  0  0  0
 63119  1  0  0  0  0
 64 65  2  0  0  0  0
 64120  1  0  0  0  0
 65 66  1  0  0  0  0
 65121  1  0  0  0  0
 66122  1  0  0  0  0
 67 68  1  0  0  0  0
 67 71  1  0  0  0  0
 68 69  2  0  0  0  0
 68123  1  0  0  0  0
 69 70  1  0  0  0  0
 69124  1  0  0  0  0
 70 71  1  0  0  0  0
 71125  1  0  0  0  0
 72 73  2  0  0  0  0
 72126  1  0  0  0  0
 73127  1  0  0  0  0
 74 75  2  0  0  0  0
 74128  1  0  0  0  0
 75129  1  0  0  0  0
 76 77  1  0  0  0  0
 76130  1  0  0  0  0
 77131  1  0  0  0  0
M  END
$$$$
