2_0_8929
 OpenBabel04152301353D

146157  0  0  0  0  0  0  0  0999 V2000
    0.6745   -0.4270    0.4703 O   0  0  0  0  0  0  0  0  0  0  0  0
    1.8831   -0.5768    0.3115 C   0  0  0  0  0  0  0  0  0  0  0  0
    2.8550    0.2947    1.0757 C   0  0  0  0  0  0  0  0  0  0  0  0
    3.8180   -0.4354    2.0058 C   0  0  0  0  0  0  0  0  0  0  0  0
    5.1725   -0.8398    1.4064 C   0  0  0  0  0  0  0  0  0  0  0  0
    5.8986    0.1466    0.5945 N   0  0  0  0  0  0  0  0  0  0  0  0
    5.8392    1.5006    0.8770 C   0  0  0  0  0  0  0  0  0  0  0  0
    5.2583    2.0307    1.8168 O   0  0  0  0  0  0  0  0  0  0  0  0
    6.5968    2.2752   -0.1352 C   0  0  0  0  0  0  0  0  0  0  0  0
    6.4437    3.6004   -0.2638 C   0  0  0  0  0  0  0  0  0  0  0  0
    7.1992    4.4593   -1.1864 C   0  0  0  0  0  0  0  0  0  0  0  0
    8.0904    5.3692   -0.5971 C   0  0  0  0  0  0  0  0  0  0  0  0
    8.9098    6.1769   -1.3860 C   0  0  0  0  0  0  0  0  0  0  0  0
    8.8493    6.0849   -2.7739 C   0  0  0  0  0  0  0  0  0  0  0  0
    7.9409    5.2130   -3.3752 C   0  0  0  0  0  0  0  0  0  0  0  0
    7.1033    4.4162   -2.5877 C   0  0  0  0  0  0  0  0  0  0  0  0
    5.9395    3.4265   -3.4012 Cl  0  0  0  0  0  0  0  0  0  0  0  0
    7.5922    1.2175   -1.0432 S   0  0  0  0  0  0  0  0  0  0  0  0
    6.8100   -0.2129   -0.3864 C   0  0  0  0  0  0  0  0  0  0  0  0
    7.1761   -1.7450   -0.9393 S   0  0  0  0  0  0  0  0  0  0  0  0
    2.4738   -1.4239   -0.6063 N   0  0  0  0  0  0  0  0  0  0  0  0
    1.8505   -1.9493   -1.7579 C   0  0  0  0  0  0  0  0  0  0  0  0
    2.5321   -2.9131   -2.5068 C   0  0  0  0  0  0  0  0  0  0  0  0
    2.0270   -3.3305   -3.7417 C   0  0  0  0  0  0  0  0  0  0  0  0
    0.9056   -2.7003   -4.2831 C   0  0  0  0  0  0  0  0  0  0  0  0
    0.2614   -1.6923   -3.5607 C   0  0  0  0  0  0  0  0  0  0  0  0
   -0.7772   -0.8702   -4.2344 C   0  0  0  0  0  0  0  0  0  0  0  0
   -1.5473   -1.4033   -5.0297 O   0  0  0  0  0  0  0  0  0  0  0  0
   -0.8439    0.4947   -4.0353 N   0  0  0  0  0  0  0  0  0  0  0  0
   -0.0238    1.3680   -3.2062 C   0  0  0  0  0  0  0  0  0  0  0  0
    0.3252    2.7021   -3.8570 C   0  0  0  0  0  0  0  0  0  0  0  0
   -0.8480    3.6449   -4.1208 C   0  0  0  0  0  0  0  0  0  0  0  0
   -1.7059    4.0058   -2.9051 C   0  0  0  0  0  0  0  0  0  0  0  0
   -0.9565    4.5708   -1.6957 C   0  0  0  0  0  0  0  0  0  0  0  0
   -0.0749    5.7842   -1.9747 C   0  0  0  0  0  0  0  0  0  0  0  0
   -0.8251    6.9148   -2.4952 N   0  0  0  0  0  0  0  0  0  0  0  0
   -0.8684    8.2157   -2.0608 C   0  0  0  0  0  0  0  0  0  0  0  0
   -1.6933    8.9930   -2.5325 O   0  0  0  0  0  0  0  0  0  0  0  0
    0.0625    8.6869   -1.0116 C   0  0  0  0  0  0  0  0  0  0  0  0
   -0.4310    9.5150    0.0004 C   0  0  0  0  0  0  0  0  0  0  0  0
    0.4217    9.9578    1.0141 C   0  0  0  0  0  0  0  0  0  0  0  0
    1.7631    9.5427    1.0482 C   0  0  0  0  0  0  0  0  0  0  0  0
    2.6658    9.9629    2.1515 C   0  0  0  0  0  0  0  0  0  0  0  0
    3.8720   10.8171    1.8641 C   0  0  0  0  0  0  0  0  0  0  0  0
    4.7919   11.2503    2.6898 N   0  0  0  0  0  0  0  0  0  0  0  0
    5.6998   11.9560    1.9095 C   0  0  0  0  0  0  0  0  0  0  0  0
    6.8003   12.6417    2.3002 C   0  0  0  0  0  0  0  0  0  0  0  0
    7.6216   13.3179    1.2364 C   0  0  0  0  0  0  0  0  0  0  0  0
    7.1457   14.4475    0.5522 C   0  0  0  0  0  0  0  0  0  0  0  0
    7.9437   15.0866   -0.3996 C   0  0  0  0  0  0  0  0  0  0  0  0
    9.2359   14.6265   -0.6506 C   0  0  0  0  0  0  0  0  0  0  0  0
    9.7275   13.5179    0.0362 C   0  0  0  0  0  0  0  0  0  0  0  0
    8.9208   12.8590    0.9655 C   0  0  0  0  0  0  0  0  0  0  0  0
    7.2389   12.7588    3.6657 C   0  0  0  0  0  0  0  0  0  0  0  0
    8.3041   13.4873    4.1669 C   0  0  0  0  0  0  0  0  0  0  0  0
    8.3879   13.2488    5.5415 C   0  0  0  0  0  0  0  0  0  0  0  0
    7.3314   12.4308    5.9071 C   0  0  0  0  0  0  0  0  0  0  0  0
    6.6393   12.1312    4.7455 N   0  0  0  0  0  0  0  0  0  0  0  0
    6.9793   11.9573    7.2201 C   0  0  0  0  0  0  0  0  0  0  0  0
    7.8125   12.4197    8.3838 C   0  0  0  0  0  0  0  0  0  0  0  0
    8.6412   11.5362    9.0927 C   0  0  0  0  0  0  0  0  0  0  0  0
    9.3946   11.9916   10.1768 C   0  0  0  0  0  0  0  0  0  0  0  0
    9.3621   13.3394   10.5337 C   0  0  0  0  0  0  0  0  0  0  0  0
    8.5697   14.2330    9.8157 C   0  0  0  0  0  0  0  0  0  0  0  0
    7.7884   13.7737    8.7551 C   0  0  0  0  0  0  0  0  0  0  0  0
    5.9241   11.1517    7.4927 C   0  0  0  0  0  0  0  0  0  0  0  0
    4.9796   10.6234    6.6215 N   0  0  0  0  0  0  0  0  0  0  0  0
    4.1777    9.8970    7.3620 C   0  0  0  0  0  0  0  0  0  0  0  0
    2.9480    9.1293    6.9592 C   0  0  0  0  0  0  0  0  0  0  0  0
    2.1811    8.3504    7.9693 C   0  0  0  0  0  0  0  0  0  0  0  0
    1.4906    8.9993    9.0051 C   0  0  0  0  0  0  0  0  0  0  0  0
    0.8415    8.2597    9.9970 C   0  0  0  0  0  0  0  0  0  0  0  0
    0.8378    6.8671    9.9400 C   0  0  0  0  0  0  0  0  0  0  0  0
    1.4868    6.2112    8.8959 C   0  0  0  0  0  0  0  0  0  0  0  0
    2.1674    6.9473    7.9238 C   0  0  0  0  0  0  0  0  0  0  0  0
    2.5519    9.1525    5.6722 C   0  0  0  0  0  0  0  0  0  0  0  0
    1.3782    8.4689    5.1397 C   0  0  0  0  0  0  0  0  0  0  0  0
    1.3169    8.6709    3.8136 C   0  0  0  0  0  0  0  0  0  0  0  0
    2.4267    9.5369    3.4080 C   0  0  0  0  0  0  0  0  0  0  0  0
    3.1072    9.7713    4.5774 N   0  0  0  0  0  0  0  0  0  0  0  0
    4.5470    9.8543    8.7841 C   0  0  0  0  0  0  0  0  0  0  0  0
    5.5839   10.6783    8.8177 C   0  0  0  0  0  0  0  0  0  0  0  0
    5.2489   11.8546    0.5394 C   0  0  0  0  0  0  0  0  0  0  0  0
    4.0887   11.2185    0.4642 C   0  0  0  0  0  0  0  0  0  0  0  0
    2.2493    8.7249    0.0168 C   0  0  0  0  0  0  0  0  0  0  0  0
    1.4176    8.3457   -1.0352 C   0  0  0  0  0  0  0  0  0  0  0  0
    0.6598   -1.4220   -2.2522 C   0  0  0  0  0  0  0  0  0  0  0  0
    2.2848    0.9802    1.6672 H   0  0  0  0  0  0  0  0  0  0  0  0
    3.4685    0.7620    0.3340 H   0  0  0  0  0  0  0  0  0  0  0  0
    3.3319   -1.3271    2.3426 H   0  0  0  0  0  0  0  0  0  0  0  0
    4.0485    0.2642    2.7819 H   0  0  0  0  0  0  0  0  0  0  0  0
    5.0018   -1.6955    0.7871 H   0  0  0  0  0  0  0  0  0  0  0  0
    5.8017   -0.9948    2.2578 H   0  0  0  0  0  0  0  0  0  0  0  0
    5.7367    4.0554    0.3346 H   0  0  0  0  0  0  0  0  0  0  0  0
    8.1402    5.4416    0.4312 H   0  0  0  0  0  0  0  0  0  0  0  0
    9.5608    6.8426   -0.9409 H   0  0  0  0  0  0  0  0  0  0  0  0
    9.4758    6.6611   -3.3575 H   0  0  0  0  0  0  0  0  0  0  0  0
    7.8868    5.1558   -4.4042 H   0  0  0  0  0  0  0  0  0  0  0  0
    3.4094   -1.6830   -0.4428 H   0  0  0  0  0  0  0  0  0  0  0  0
    3.4107   -3.3176   -2.1470 H   0  0  0  0  0  0  0  0  0  0  0  0
    2.4825   -4.1032   -4.2520 H   0  0  0  0  0  0  0  0  0  0  0  0
    0.5537   -2.9775   -5.2128 H   0  0  0  0  0  0  0  0  0  0  0  0
   -1.5603    0.9506   -4.5334 H   0  0  0  0  0  0  0  0  0  0  0  0
    0.8883    0.8563   -2.9800 H   0  0  0  0  0  0  0  0  0  0  0  0
   -0.6005    1.5935   -2.3335 H   0  0  0  0  0  0  0  0  0  0  0  0
    0.7967    2.4955   -4.7950 H   0  0  0  0  0  0  0  0  0  0  0  0
    0.9523    3.2107   -3.1549 H   0  0  0  0  0  0  0  0  0  0  0  0
   -1.4848    3.1805   -4.8445 H   0  0  0  0  0  0  0  0  0  0  0  0
   -0.4106    4.5648   -4.4484 H   0  0  0  0  0  0  0  0  0  0  0  0
   -2.2148    3.1191   -2.5893 H   0  0  0  0  0  0  0  0  0  0  0  0
   -2.3543    4.7909   -3.2338 H   0  0  0  0  0  0  0  0  0  0  0  0
   -0.3336    3.7948   -1.3024 H   0  0  0  0  0  0  0  0  0  0  0  0
   -1.7105    4.9070   -1.0150 H   0  0  0  0  0  0  0  0  0  0  0  0
    0.6701    5.5085   -2.6916 H   0  0  0  0  0  0  0  0  0  0  0  0
    0.3622    6.0864   -1.0460 H   0  0  0  0  0  0  0  0  0  0  0  0
   -1.3878    6.7174   -3.2786 H   0  0  0  0  0  0  0  0  0  0  0  0
   -1.4233    9.7986   -0.0014 H   0  0  0  0  0  0  0  0  0  0  0  0
    0.0637   10.5944    1.7432 H   0  0  0  0  0  0  0  0  0  0  0  0
    6.2000   14.8081    0.7537 H   0  0  0  0  0  0  0  0  0  0  0  0
    7.5765   15.9002   -0.9176 H   0  0  0  0  0  0  0  0  0  0  0  0
    9.8286   15.1072   -1.3454 H   0  0  0  0  0  0  0  0  0  0  0  0
   10.6876   13.1842   -0.1422 H   0  0  0  0  0  0  0  0  0  0  0  0
    9.2824   12.0272    1.4578 H   0  0  0  0  0  0  0  0  0  0  0  0
    8.9285   14.1006    3.6200 H   0  0  0  0  0  0  0  0  0  0  0  0
    9.1130   13.6189    6.1758 H   0  0  0  0  0  0  0  0  0  0  0  0
    5.8406   11.5579    4.6947 H   0  0  0  0  0  0  0  0  0  0  0  0
    8.6941   10.5447    8.8113 H   0  0  0  0  0  0  0  0  0  0  0  0
    9.9761   11.3300   10.7145 H   0  0  0  0  0  0  0  0  0  0  0  0
    9.9255   13.6754   11.3304 H   0  0  0  0  0  0  0  0  0  0  0  0
    8.5608   15.2336   10.0683 H   0  0  0  0  0  0  0  0  0  0  0  0
    7.1874   14.4349    8.2388 H   0  0  0  0  0  0  0  0  0  0  0  0
    1.4622   10.0305    9.0341 H   0  0  0  0  0  0  0  0  0  0  0  0
    0.3643    8.7451   10.7727 H   0  0  0  0  0  0  0  0  0  0  0  0
    0.3545    6.3219   10.6709 H   0  0  0  0  0  0  0  0  0  0  0  0
    1.4645    5.1809    8.8410 H   0  0  0  0  0  0  0  0  0  0  0  0
    2.6648    6.4554    7.1651 H   0  0  0  0  0  0  0  0  0  0  0  0
    0.7033    7.9184    5.6934 H   0  0  0  0  0  0  0  0  0  0  0  0
    0.6020    8.2787    3.1811 H   0  0  0  0  0  0  0  0  0  0  0  0
    3.9164   10.3298    4.6271 H   0  0  0  0  0  0  0  0  0  0  0  0
    4.1126    9.3221    9.5542 H   0  0  0  0  0  0  0  0  0  0  0  0
    6.0850   10.9482    9.6785 H   0  0  0  0  0  0  0  0  0  0  0  0
    5.7632   12.2286   -0.2734 H   0  0  0  0  0  0  0  0  0  0  0  0
    3.4924   11.0487   -0.3608 H   0  0  0  0  0  0  0  0  0  0  0  0
    3.2293    8.4021    0.0374 H   0  0  0  0  0  0  0  0  0  0  0  0
    1.8021    7.8132   -1.8312 H   0  0  0  0  0  0  0  0  0  0  0  0
    0.0702   -0.8289   -1.6475 H   0  0  0  0  0  0  0  0  0  0  0  0
  1  2  2  0  0  0  0
  2  3  1  0  0  0  0
  2 21  1  0  0  0  0
  3  4  1  0  0  0  0
  3 88  1  0  0  0  0
  3 89  1  0  0  0  0
  4  5  1  0  0  0  0
  4 90  1  0  0  0  0
  4 91  1  0  0  0  0
  5  6  1  0  0  0  0
  5 92  1  0  0  0  0
  5 93  1  0  0  0  0
  6  7  1  0  0  0  0
  6 19  1  0  0  0  0
  7  8  2  0  0  0  0
  7  9  1  0  0  0  0
  9 10  2  0  0  0  0
  9 18  1  0  0  0  0
 10 11  1  0  0  0  0
 10 94  1  0  0  0  0
 11 12  1  0  0  0  0
 11 16  2  0  0  0  0
 12 13  2  0  0  0  0
 12 95  1  0  0  0  0
 13 14  1  0  0  0  0
 13 96  1  0  0  0  0
 14 15  2  0  0  0  0
 14 97  1  0  0  0  0
 15 16  1  0  0  0  0
 15 98  1  0  0  0  0
 16 17  1  0  0  0  0
 18 19  1  0  0  0  0
 19 20  2  0  0  0  0
 21 22  1  0  0  0  0
 21 99  1  0  0  0  0
 22 23  1  0  0  0  0
 22 87  2  0  0  0  0
 23 24  2  0  0  0  0
 23100  1  0  0  0  0
 24 25  1  0  0  0  0
 24101  1  0  0  0  0
 25 26  2  0  0  0  0
 25102  1  0  0  0  0
 26 27  1  0  0  0  0
 26 87  1  0  0  0  0
 27 28  2  0  0  0  0
 27 29  1  0  0  0  0
 29 30  1  0  0  0  0
 29103  1  0  0  0  0
 30 31  1  0  0  0  0
 30104  1  0  0  0  0
 30105  1  0  0  0  0
 31 32  1  0  0  0  0
 31106  1  0  0  0  0
 31107  1  0  0  0  0
 32 33  1  0  0  0  0
 32108  1  0  0  0  0
 32109  1  0  0  0  0
 33 34  1  0  0  0  0
 33110  1  0  0  0  0
 33111  1  0  0  0  0
 34 35  1  0  0  0  0
 34112  1  0  0  0  0
 34113  1  0  0  0  0
 35 36  1  0  0  0  0
 35114  1  0  0  0  0
 35115  1  0  0  0  0
 36 37  1  0  0  0  0
 36116  1  0  0  0  0
 37 38  2  0  0  0  0
 37 39  1  0  0  0  0
 39 40  1  0  0  0  0
 39 86  2  0  0  0  0
 40 41  2  0  0  0  0
 40117  1  0  0  0  0
 41 42  1  0  0  0  0
 41118  1  0  0  0  0
 42 43  1  0  0  0  0
 42 85  2  0  0  0  0
 43 44  1  0  0  0  0
 43 79  2  0  0  0  0
 44 45  2  0  0  0  0
 44 84  1  0  0  0  0
 45 46  1  0  0  0  0
 46 47  2  0  0  0  0
 46 83  1  0  0  0  0
 47 48  1  0  0  0  0
 47 54  1  0  0  0  0
 48 49  1  0  0  0  0
 48 53  2  0  0  0  0
 49 50  2  0  0  0  0
 49119  1  0  0  0  0
 50 51  1  0  0  0  0
 50120  1  0  0  0  0
 51 52  2  0  0  0  0
 51121  1  0  0  0  0
 52 53  1  0  0  0  0
 52122  1  0  0  0  0
 53123  1  0  0  0  0
 54 55  2  0  0  0  0
 54 58  1  0  0  0  0
 55 56  1  0  0  0  0
 55124  1  0  0  0  0
 56 57  2  0  0  0  0
 56125  1  0  0  0  0
 57 58  1  0  0  0  0
 57 59  1  0  0  0  0
 58126  1  0  0  0  0
 59 60  1  0  0  0  0
 59 66  2  0  0  0  0
 60 61  1  0  0  0  0
 60 65  2  0  0  0  0
 61 62  2  0  0  0  0
 61127  1  0  0  0  0
 62 63  1  0  0  0  0
 62128  1  0  0  0  0
 63 64  2  0  0  0  0
 63129  1  0  0  0  0
 64 65  1  0  0  0  0
 64130  1  0  0  0  0
 65131  1  0  0  0  0
 66 67  1  0  0  0  0
 66 82  1  0  0  0  0
 67 68  2  0  0  0  0
 68 69  1  0  0  0  0
 68 81  1  0  0  0  0
 69 70  1  0  0  0  0
 69 76  2  0  0  0  0
 70 71  1  0  0  0  0
 70 75  2  0  0  0  0
 71 72  2  0  0  0  0
 71132  1  0  0  0  0
 72 73  1  0  0  0  0
 72133  1  0  0  0  0
 73 74  2  0  0  0  0
 73134  1  0  0  0  0
 74 75  1  0  0  0  0
 74135  1  0  0  0  0
 75136  1  0  0  0  0
 76 77  1  0  0  0  0
 76 80  1  0  0  0  0
 77 78  2  0  0  0  0
 77137  1  0  0  0  0
 78 79  1  0  0  0  0
 78138  1  0  0  0  0
 79 80  1  0  0  0  0
 80139  1  0  0  0  0
 81 82  2  0  0  0  0
 81140  1  0  0  0  0
 82141  1  0  0  0  0
 83 84  2  0  0  0  0
 83142  1  0  0  0  0
 84143  1  0  0  0  0
 85 86  1  0  0  0  0
 85144  1  0  0  0  0
 86145  1  0  0  0  0
 87146  1  0  0  0  0
M  END
$$$$
