2_1_9073
 OpenBabel04152301373D

119128  0  0  1  0  0  0  0  0999 V2000
    1.9399    0.7920   -0.7893 C   0  0  0  0  0  0  0  0  0  0  0  0
    1.6097   -0.3075    0.0493 O   0  0  0  0  0  0  0  0  0  0  0  0
    2.4040   -1.4550   -0.2271 C   0  0  0  0  0  0  0  0  0  0  0  0
    1.5589   -2.5700   -0.7915 C   0  0  0  0  0  0  0  0  0  0  0  0
    0.3813   -2.3392   -1.5150 C   0  0  0  0  0  0  0  0  0  0  0  0
   -0.4055   -3.4109   -1.9392 C   0  0  0  0  0  0  0  0  0  0  0  0
   -0.0395   -4.7183   -1.6123 C   0  0  0  0  0  0  0  0  0  0  0  0
    1.1189   -4.9620   -0.8734 C   0  0  0  0  0  0  0  0  0  0  0  0
    1.3818   -6.2629   -0.5695 O   0  0  0  0  0  0  0  0  0  0  0  0
    1.8248   -6.5898    0.7486 C   0  0  1  0  0  0  0  0  0  0  0  0
    2.8250   -5.7554    1.1603 F   0  0  0  0  0  0  0  0  0  0  0  0
    0.7509   -6.8311    1.8437 C   0  0  0  0  0  0  0  0  0  0  0  0
    0.2929   -7.9634    2.0441 O   0  0  0  0  0  0  0  0  0  0  0  0
    0.2762   -5.8283    2.6442 N   0  0  0  0  0  0  0  0  0  0  0  0
    0.4827   -4.3957    2.5588 C   0  0  0  0  0  0  0  0  0  0  0  0
   -0.6860   -3.7246    1.8312 C   0  0  0  0  0  0  0  0  0  0  0  0
   -1.6118   -2.9060    2.7240 C   0  0  0  0  0  0  0  0  0  0  0  0
   -0.9734   -1.6430    3.2962 C   0  0  0  0  0  0  0  0  0  0  0  0
   -0.6265   -0.6250    2.3109 N   0  0  0  0  0  0  0  0  0  0  0  0
   -0.6658    0.7486    2.4462 C   0  0  0  0  0  0  0  0  0  0  0  0
   -0.4615    1.4908    1.4945 O   0  0  0  0  0  0  0  0  0  0  0  0
   -1.0334    1.3417    3.7510 C   0  0  0  0  0  0  0  0  0  0  0  0
   -1.9536    2.3930    3.7635 C   0  0  0  0  0  0  0  0  0  0  0  0
   -2.4750    2.8356    4.9776 C   0  0  0  0  0  0  0  0  0  0  0  0
   -2.1190    2.1893    6.1722 C   0  0  0  0  0  0  0  0  0  0  0  0
   -2.8415    2.4768    7.4331 C   0  0  0  0  0  0  0  0  0  0  0  0
   -2.1206    3.0514    8.6156 C   0  0  0  0  0  0  0  0  0  0  0  0
   -2.5883    3.3371    9.8038 N   0  0  0  0  0  0  0  0  0  0  0  0
   -1.4998    3.7895   10.5367 C   0  0  0  0  0  0  0  0  0  0  0  0
   -1.4718    4.2578   11.8067 C   0  0  0  0  0  0  0  0  0  0  0  0
   -0.1383    4.6890   12.3474 C   0  0  0  0  0  0  0  0  0  0  0  0
    0.4893    5.8563   11.8825 C   0  0  0  0  0  0  0  0  0  0  0  0
    1.7450    6.2260   12.3683 C   0  0  0  0  0  0  0  0  0  0  0  0
    2.3682    5.4546   13.3482 C   0  0  0  0  0  0  0  0  0  0  0  0
    1.7404    4.3111   13.8407 C   0  0  0  0  0  0  0  0  0  0  0  0
    0.4966    3.9245   13.3376 C   0  0  0  0  0  0  0  0  0  0  0  0
   -2.6289    4.3617   12.6540 C   0  0  0  0  0  0  0  0  0  0  0  0
   -2.7193    4.8796   13.9340 C   0  0  0  0  0  0  0  0  0  0  0  0
   -4.0420    4.7379   14.3692 C   0  0  0  0  0  0  0  0  0  0  0  0
   -4.7818    4.1696   13.3444 C   0  0  0  0  0  0  0  0  0  0  0  0
   -3.9014    3.9379   12.3016 N   0  0  0  0  0  0  0  0  0  0  0  0
   -6.1880    3.8627   13.3188 C   0  0  0  0  0  0  0  0  0  0  0  0
   -7.0065    4.2159   14.5256 C   0  0  0  0  0  0  0  0  0  0  0  0
   -7.4621    3.2242   15.4075 C   0  0  0  0  0  0  0  0  0  0  0  0
   -8.2245    3.5721   16.5237 C   0  0  0  0  0  0  0  0  0  0  0  0
   -8.5101    4.9123   16.7838 C   0  0  0  0  0  0  0  0  0  0  0  0
   -8.0415    5.9071   15.9266 C   0  0  0  0  0  0  0  0  0  0  0  0
   -7.2998    5.5609   14.7970 C   0  0  0  0  0  0  0  0  0  0  0  0
   -6.8456    3.2970   12.2779 C   0  0  0  0  0  0  0  0  0  0  0  0
   -6.3472    2.8917   11.0482 N   0  0  0  0  0  0  0  0  0  0  0  0
   -7.3691    2.3916   10.3970 C   0  0  0  0  0  0  0  0  0  0  0  0
   -7.4172    1.8281    9.0070 C   0  0  0  0  0  0  0  0  0  0  0  0
   -8.6869    1.3136    8.4343 C   0  0  0  0  0  0  0  0  0  0  0  0
   -9.7069    2.2027    8.0623 C   0  0  0  0  0  0  0  0  0  0  0  0
  -10.9068    1.7219    7.5338 C   0  0  0  0  0  0  0  0  0  0  0  0
  -11.0878    0.3526    7.3461 C   0  0  0  0  0  0  0  0  0  0  0  0
  -10.0739   -0.5389    7.6934 C   0  0  0  0  0  0  0  0  0  0  0  0
   -8.8822   -0.0629    8.2448 C   0  0  0  0  0  0  0  0  0  0  0  0
   -6.2957    1.8292    8.2640 C   0  0  0  0  0  0  0  0  0  0  0  0
   -6.1936    1.3366    6.8960 C   0  0  0  0  0  0  0  0  0  0  0  0
   -4.9308    1.4946    6.4699 C   0  0  0  0  0  0  0  0  0  0  0  0
   -4.1416    2.1334    7.5281 C   0  0  0  0  0  0  0  0  0  0  0  0
   -5.0299    2.2716    8.5634 N   0  0  0  0  0  0  0  0  0  0  0  0
   -8.6315    2.4040   11.1480 C   0  0  0  0  0  0  0  0  0  0  0  0
   -8.2645    3.0007   12.2736 C   0  0  0  0  0  0  0  0  0  0  0  0
   -0.3405    3.6965    9.6760 C   0  0  0  0  0  0  0  0  0  0  0  0
   -0.6811    3.3102    8.4554 C   0  0  0  0  0  0  0  0  0  0  0  0
   -1.1235    1.2028    6.1525 C   0  0  0  0  0  0  0  0  0  0  0  0
   -0.5367    0.8272    4.9504 C   0  0  0  0  0  0  0  0  0  0  0  0
    1.9515   -3.8948   -0.5447 C   0  0  0  0  0  0  0  0  0  0  0  0
    1.3179    1.6273   -0.5438 H   0  0  0  0  0  0  0  0  0  0  0  0
    1.7840    0.5198   -1.8123 H   0  0  0  0  0  0  0  0  0  0  0  0
    2.9663    1.0565   -0.6430 H   0  0  0  0  0  0  0  0  0  0  0  0
    2.8650   -1.7888    0.6790 H   0  0  0  0  0  0  0  0  0  0  0  0
    3.1482   -1.1905   -0.9489 H   0  0  0  0  0  0  0  0  0  0  0  0
    0.0946   -1.3726   -1.7351 H   0  0  0  0  0  0  0  0  0  0  0  0
   -1.2579   -3.2372   -2.4945 H   0  0  0  0  0  0  0  0  0  0  0  0
   -0.6287   -5.5082   -1.9187 H   0  0  0  0  0  0  0  0  0  0  0  0
    2.2145   -7.5789    0.6273 H   0  0  0  0  0  0  0  0  0  0  0  0
   -0.2919   -6.1244    3.3918 H   0  0  0  0  0  0  0  0  0  0  0  0
    1.3883   -4.2024    2.0226 H   0  0  0  0  0  0  0  0  0  0  0  0
    0.5466   -3.9969    3.5496 H   0  0  0  0  0  0  0  0  0  0  0  0
   -1.2681   -4.4893    1.3609 H   0  0  0  0  0  0  0  0  0  0  0  0
   -0.2520   -3.0359    1.1367 H   0  0  0  0  0  0  0  0  0  0  0  0
   -1.9236   -3.5237    3.5401 H   0  0  0  0  0  0  0  0  0  0  0  0
   -2.4281   -2.5870    2.1102 H   0  0  0  0  0  0  0  0  0  0  0  0
   -0.0782   -1.9270    3.8089 H   0  0  0  0  0  0  0  0  0  0  0  0
   -1.7083   -1.2008    3.9359 H   0  0  0  0  0  0  0  0  0  0  0  0
   -0.3252   -0.9608    1.4358 H   0  0  0  0  0  0  0  0  0  0  0  0
   -2.2452    2.8387    2.8796 H   0  0  0  0  0  0  0  0  0  0  0  0
   -3.1229    3.6386    4.9987 H   0  0  0  0  0  0  0  0  0  0  0  0
    0.0191    6.4448   11.1770 H   0  0  0  0  0  0  0  0  0  0  0  0
    2.2118    7.0703   12.0020 H   0  0  0  0  0  0  0  0  0  0  0  0
    3.2949    5.7301   13.7093 H   0  0  0  0  0  0  0  0  0  0  0  0
    2.1954    3.7500   14.5777 H   0  0  0  0  0  0  0  0  0  0  0  0
    0.0413    3.0707   13.6966 H   0  0  0  0  0  0  0  0  0  0  0  0
   -1.9457    5.2978   14.4740 H   0  0  0  0  0  0  0  0  0  0  0  0
   -4.4048    5.0104   15.2961 H   0  0  0  0  0  0  0  0  0  0  0  0
   -4.1429    3.5323   11.4377 H   0  0  0  0  0  0  0  0  0  0  0  0
   -7.2326    2.2338   15.2302 H   0  0  0  0  0  0  0  0  0  0  0  0
   -8.5770    2.8373   17.1568 H   0  0  0  0  0  0  0  0  0  0  0  0
   -9.0694    5.1682   17.6125 H   0  0  0  0  0  0  0  0  0  0  0  0
   -8.2433    6.8990   16.1277 H   0  0  0  0  0  0  0  0  0  0  0  0
   -6.9649    6.2982   14.1573 H   0  0  0  0  0  0  0  0  0  0  0  0
   -9.5694    3.2187    8.1801 H   0  0  0  0  0  0  0  0  0  0  0  0
  -11.6601    2.3809    7.2820 H   0  0  0  0  0  0  0  0  0  0  0  0
  -11.9726   -0.0013    6.9499 H   0  0  0  0  0  0  0  0  0  0  0  0
  -10.2040   -1.5516    7.5429 H   0  0  0  0  0  0  0  0  0  0  0  0
   -8.1405   -0.7279    8.5146 H   0  0  0  0  0  0  0  0  0  0  0  0
   -6.9666    0.9321    6.3447 H   0  0  0  0  0  0  0  0  0  0  0  0
   -4.5721    1.2115    5.5446 H   0  0  0  0  0  0  0  0  0  0  0  0
   -4.7842    2.6515    9.4378 H   0  0  0  0  0  0  0  0  0  0  0  0
   -9.5585    2.0437   10.8724 H   0  0  0  0  0  0  0  0  0  0  0  0
   -8.9077    3.2257   13.0487 H   0  0  0  0  0  0  0  0  0  0  0  0
    0.6255    3.9040    9.9740 H   0  0  0  0  0  0  0  0  0  0  0  0
   -0.0917    3.2157    7.6136 H   0  0  0  0  0  0  0  0  0  0  0  0
   -0.8257    0.7544    7.0330 H   0  0  0  0  0  0  0  0  0  0  0  0
    0.2609    0.1724    4.9440 H   0  0  0  0  0  0  0  0  0  0  0  0
    2.8704   -4.0809   -0.1134 H   0  0  0  0  0  0  0  0  0  0  0  0
  1  2  1  0  0  0  0
  1 71  1  0  0  0  0
  1 72  1  0  0  0  0
  1 73  1  0  0  0  0
  2  3  1  0  0  0  0
  3  4  1  0  0  0  0
  3 74  1  0  0  0  0
  3 75  1  0  0  0  0
  4  5  1  0  0  0  0
  4 70  2  0  0  0  0
  5  6  2  0  0  0  0
  5 76  1  0  0  0  0
  6  7  1  0  0  0  0
  6 77  1  0  0  0  0
  7  8  2  0  0  0  0
  7 78  1  0  0  0  0
  8  9  1  0  0  0  0
  8 70  1  0  0  0  0
  9 10  1  0  0  0  0
 10 11  1  0  0  0  0
 10 12  1  0  0  0  0
 10 79  1  6  0  0  0
 12 13  2  0  0  0  0
 12 14  1  0  0  0  0
 14 15  1  0  0  0  0
 14 80  1  0  0  0  0
 15 16  1  0  0  0  0
 15 81  1  0  0  0  0
 15 82  1  0  0  0  0
 16 17  1  0  0  0  0
 16 83  1  0  0  0  0
 16 84  1  0  0  0  0
 17 18  1  0  0  0  0
 17 85  1  0  0  0  0
 17 86  1  0  0  0  0
 18 19  1  0  0  0  0
 18 87  1  0  0  0  0
 18 88  1  0  0  0  0
 19 20  1  0  0  0  0
 19 89  1  0  0  0  0
 20 21  2  0  0  0  0
 20 22  1  0  0  0  0
 22 23  1  0  0  0  0
 22 69  2  0  0  0  0
 23 24  2  0  0  0  0
 23 90  1  0  0  0  0
 24 25  1  0  0  0  0
 24 91  1  0  0  0  0
 25 26  1  0  0  0  0
 25 68  2  0  0  0  0
 26 27  1  0  0  0  0
 26 62  2  0  0  0  0
 27 28  2  0  0  0  0
 27 67  1  0  0  0  0
 28 29  1  0  0  0  0
 29 30  2  0  0  0  0
 29 66  1  0  0  0  0
 30 31  1  0  0  0  0
 30 37  1  0  0  0  0
 31 32  1  0  0  0  0
 31 36  2  0  0  0  0
 32 33  2  0  0  0  0
 32 92  1  0  0  0  0
 33 34  1  0  0  0  0
 33 93  1  0  0  0  0
 34 35  2  0  0  0  0
 34 94  1  0  0  0  0
 35 36  1  0  0  0  0
 35 95  1  0  0  0  0
 36 96  1  0  0  0  0
 37 38  2  0  0  0  0
 37 41  1  0  0  0  0
 38 39  1  0  0  0  0
 38 97  1  0  0  0  0
 39 40  2  0  0  0  0
 39 98  1  0  0  0  0
 40 41  1  0  0  0  0
 40 42  1  0  0  0  0
 41 99  1  0  0  0  0
 42 43  1  0  0  0  0
 42 49  2  0  0  0  0
 43 44  1  0  0  0  0
 43 48  2  0  0  0  0
 44 45  2  0  0  0  0
 44100  1  0  0  0  0
 45 46  1  0  0  0  0
 45101  1  0  0  0  0
 46 47  2  0  0  0  0
 46102  1  0  0  0  0
 47 48  1  0  0  0  0
 47103  1  0  0  0  0
 48104  1  0  0  0  0
 49 50  1  0  0  0  0
 49 65  1  0  0  0  0
 50 51  2  0  0  0  0
 51 52  1  0  0  0  0
 51 64  1  0  0  0  0
 52 53  1  0  0  0  0
 52 59  2  0  0  0  0
 53 54  1  0  0  0  0
 53 58  2  0  0  0  0
 54 55  2  0  0  0  0
 54105  1  0  0  0  0
 55 56  1  0  0  0  0
 55106  1  0  0  0  0
 56 57  2  0  0  0  0
 56107  1  0  0  0  0
 57 58  1  0  0  0  0
 57108  1  0  0  0  0
 58109  1  0  0  0  0
 59 60  1  0  0  0  0
 59 63  1  0  0  0  0
 60 61  2  0  0  0  0
 60110  1  0  0  0  0
 61 62  1  0  0  0  0
 61111  1  0  0  0  0
 62 63  1  0  0  0  0
 63112  1  0  0  0  0
 64 65  2  0  0  0  0
 64113  1  0  0  0  0
 65114  1  0  0  0  0
 66 67  2  0  0  0  0
 66115  1  0  0  0  0
 67116  1  0  0  0  0
 68 69  1  0  0  0  0
 68117  1  0  0  0  0
 69118  1  0  0  0  0
 70119  1  0  0  0  0
M  END
$$$$
