2_1_8601
 OpenBabel04152301363D

131140  0  0  1  0  0  0  0  0999 V2000
    1.3788    0.2277   -0.0479 C   0  0  0  0  0  0  0  0  0  0  0  0
    0.8325   -0.8483    0.8876 C   0  0  0  0  0  0  0  0  0  0  0  0
    1.3246   -0.5888    2.3172 C   0  0  0  0  0  0  0  0  0  0  0  0
   -0.7038   -0.9025    0.8903 C   0  0  0  0  0  0  0  0  0  0  0  0
   -1.4028   -1.2236   -0.4474 C   0  0  1  0  0  0  0  0  0  0  0  0
   -0.9002   -2.4220   -1.2823 C   0  0  0  0  0  0  0  0  0  0  0  0
   -1.1592   -3.7283   -0.7147 N   0  0  0  0  0  0  0  0  0  0  0  0
   -1.9994   -4.7339   -1.0906 C   0  0  0  0  0  0  0  0  0  0  0  0
   -2.0946   -5.6727   -0.2961 O   0  0  0  0  0  0  0  0  0  0  0  0
   -2.6837   -4.7480   -2.4577 C   0  0  2  0  0  0  0  0  0  0  0  0
   -3.6415   -3.6221   -2.7740 C   0  0  0  0  0  0  0  0  0  0  0  0
   -4.9507   -4.0947   -2.1908 C   0  0  0  0  0  0  0  0  0  0  0  0
   -4.9548   -5.5176   -2.3089 O   0  0  0  0  0  0  0  0  0  0  0  0
   -3.6125   -5.9553   -2.5959 C   0  0  0  0  0  0  0  0  0  0  0  0
   -2.9242   -1.1753   -0.3006 C   0  0  0  0  0  0  0  0  0  0  0  0
   -3.5851   -0.4238   -1.0256 O   0  0  0  0  0  0  0  0  0  0  0  0
   -3.6187   -1.9365    0.5870 N   0  0  0  0  0  0  0  0  0  0  0  0
   -3.2025   -3.0098    1.4727 C   0  0  0  0  0  0  0  0  0  0  0  0
   -3.6131   -2.7700    2.9196 C   0  0  0  0  0  0  0  0  0  0  0  0
   -5.0980   -2.9951    3.1952 C   0  0  0  0  0  0  0  0  0  0  0  0
   -5.6447   -4.3537    2.7631 C   0  0  0  0  0  0  0  0  0  0  0  0
   -4.9113   -5.4813    3.3211 N   0  0  0  0  0  0  0  0  0  0  0  0
   -5.4067   -6.6335    3.8838 C   0  0  0  0  0  0  0  0  0  0  0  0
   -4.6594   -7.4470    4.4163 O   0  0  0  0  0  0  0  0  0  0  0  0
   -6.8651   -6.8602    3.8797 C   0  0  0  0  0  0  0  0  0  0  0  0
   -7.5044   -7.1653    5.0829 C   0  0  0  0  0  0  0  0  0  0  0  0
   -8.8975   -7.2345    5.1212 C   0  0  0  0  0  0  0  0  0  0  0  0
   -9.6512   -6.9607    3.9678 C   0  0  0  0  0  0  0  0  0  0  0  0
  -11.1333   -6.9185    4.0097 C   0  0  0  0  0  0  0  0  0  0  0  0
  -11.9386   -7.9115    3.2208 C   0  0  0  0  0  0  0  0  0  0  0  0
  -13.2371   -7.9911    3.0765 N   0  0  0  0  0  0  0  0  0  0  0  0
  -13.4535   -9.0507    2.2055 C   0  0  0  0  0  0  0  0  0  0  0  0
  -14.6286   -9.5677    1.7759 C   0  0  0  0  0  0  0  0  0  0  0  0
  -14.5631  -10.7235    0.8189 C   0  0  0  0  0  0  0  0  0  0  0  0
  -14.1553  -11.9974    1.2455 C   0  0  0  0  0  0  0  0  0  0  0  0
  -14.0907  -13.0584    0.3404 C   0  0  0  0  0  0  0  0  0  0  0  0
  -14.4662  -12.8656   -0.9885 C   0  0  0  0  0  0  0  0  0  0  0  0
  -14.8991  -11.6116   -1.4173 C   0  0  0  0  0  0  0  0  0  0  0  0
  -14.9393  -10.5424   -0.5207 C   0  0  0  0  0  0  0  0  0  0  0  0
  -15.9216   -9.0812    2.1733 C   0  0  0  0  0  0  0  0  0  0  0  0
  -17.1692   -9.5834    1.8470 C   0  0  0  0  0  0  0  0  0  0  0  0
  -18.1373   -8.7597    2.4312 C   0  0  0  0  0  0  0  0  0  0  0  0
  -17.4902   -7.7723    3.1565 C   0  0  0  0  0  0  0  0  0  0  0  0
  -16.1321   -7.9788    2.9859 N   0  0  0  0  0  0  0  0  0  0  0  0
  -18.0679   -6.7150    3.9436 C   0  0  0  0  0  0  0  0  0  0  0  0
  -19.5645   -6.6449    4.0346 C   0  0  0  0  0  0  0  0  0  0  0  0
  -20.2887   -5.6564    3.3514 C   0  0  0  0  0  0  0  0  0  0  0  0
  -21.6814   -5.6169    3.4400 C   0  0  0  0  0  0  0  0  0  0  0  0
  -22.3620   -6.5805    4.1843 C   0  0  0  0  0  0  0  0  0  0  0  0
  -21.6531   -7.5800    4.8490 C   0  0  0  0  0  0  0  0  0  0  0  0
  -20.2598   -7.6075    4.7828 C   0  0  0  0  0  0  0  0  0  0  0  0
  -17.3624   -5.7880    4.6352 C   0  0  0  0  0  0  0  0  0  0  0  0
  -15.9859   -5.6460    4.7482 N   0  0  0  0  0  0  0  0  0  0  0  0
  -15.7972   -4.5998    5.5145 C   0  0  0  0  0  0  0  0  0  0  0  0
  -14.5067   -4.0024    5.9996 C   0  0  0  0  0  0  0  0  0  0  0  0
  -14.5137   -2.8142    6.8907 C   0  0  0  0  0  0  0  0  0  0  0  0
  -14.9274   -2.9348    8.2263 C   0  0  0  0  0  0  0  0  0  0  0  0
  -14.9692   -1.8139    9.0581 C   0  0  0  0  0  0  0  0  0  0  0  0
  -14.5713   -0.5694    8.5724 C   0  0  0  0  0  0  0  0  0  0  0  0
  -14.1377   -0.4415    7.2536 C   0  0  0  0  0  0  0  0  0  0  0  0
  -14.1182   -1.5560    6.4122 C   0  0  0  0  0  0  0  0  0  0  0  0
  -13.3405   -4.5685    5.6376 C   0  0  0  0  0  0  0  0  0  0  0  0
  -12.0166   -4.0990    6.0320 C   0  0  0  0  0  0  0  0  0  0  0  0
  -11.0865   -4.8850    5.4654 C   0  0  0  0  0  0  0  0  0  0  0  0
  -11.7532   -5.9386    4.6961 C   0  0  0  0  0  0  0  0  0  0  0  0
  -13.0894   -5.6657    4.8500 N   0  0  0  0  0  0  0  0  0  0  0  0
  -17.0361   -3.9413    5.9536 C   0  0  0  0  0  0  0  0  0  0  0  0
  -17.9606   -4.7283    5.4210 C   0  0  0  0  0  0  0  0  0  0  0  0
  -12.1541   -9.5576    1.8219 C   0  0  0  0  0  0  0  0  0  0  0  0
  -11.1855   -8.9323    2.4744 C   0  0  0  0  0  0  0  0  0  0  0  0
   -8.9897   -6.7065    2.7561 C   0  0  0  0  0  0  0  0  0  0  0  0
   -7.6005   -6.7090    2.7010 C   0  0  0  0  0  0  0  0  0  0  0  0
    2.4482    0.2224   -0.0117 H   0  0  0  0  0  0  0  0  0  0  0  0
    1.0163    1.1860    0.2605 H   0  0  0  0  0  0  0  0  0  0  0  0
    1.0548    0.0288   -1.0481 H   0  0  0  0  0  0  0  0  0  0  0  0
    1.1925   -1.7893    0.5274 H   0  0  0  0  0  0  0  0  0  0  0  0
    0.9533    0.3557    2.6563 H   0  0  0  0  0  0  0  0  0  0  0  0
    2.3945   -0.5767    2.3295 H   0  0  0  0  0  0  0  0  0  0  0  0
    0.9693   -1.3644    2.9630 H   0  0  0  0  0  0  0  0  0  0  0  0
   -1.0586    0.0526    1.2172 H   0  0  0  0  0  0  0  0  0  0  0  0
   -0.9487   -1.7229    1.5321 H   0  0  0  0  0  0  0  0  0  0  0  0
   -1.0793   -0.4224   -1.0785 H   0  0  0  0  0  0  0  0  0  0  0  0
    0.1579   -2.3189   -1.4034 H   0  0  0  0  0  0  0  0  0  0  0  0
   -1.4446   -2.3881   -2.2028 H   0  0  0  0  0  0  0  0  0  0  0  0
   -0.6309   -3.9272    0.0919 H   0  0  0  0  0  0  0  0  0  0  0  0
   -1.8281   -4.7099   -3.0990 H   0  0  0  0  0  0  0  0  0  0  0  0
   -3.7245   -3.4768   -3.8308 H   0  0  0  0  0  0  0  0  0  0  0  0
   -3.3239   -2.6818   -2.3743 H   0  0  0  0  0  0  0  0  0  0  0  0
   -5.7710   -3.6759   -2.7354 H   0  0  0  0  0  0  0  0  0  0  0  0
   -5.0530   -3.7900   -1.1702 H   0  0  0  0  0  0  0  0  0  0  0  0
   -3.3230   -6.7177   -1.9032 H   0  0  0  0  0  0  0  0  0  0  0  0
   -3.5556   -6.3575   -3.5858 H   0  0  0  0  0  0  0  0  0  0  0  0
   -4.5779   -1.7208    0.6386 H   0  0  0  0  0  0  0  0  0  0  0  0
   -2.1369   -3.0960    1.4290 H   0  0  0  0  0  0  0  0  0  0  0  0
   -3.6856   -3.9061    1.1438 H   0  0  0  0  0  0  0  0  0  0  0  0
   -3.3746   -1.7581    3.1726 H   0  0  0  0  0  0  0  0  0  0  0  0
   -3.0792   -3.4829    3.5126 H   0  0  0  0  0  0  0  0  0  0  0  0
   -5.6486   -2.2377    2.6774 H   0  0  0  0  0  0  0  0  0  0  0  0
   -5.2101   -2.9564    4.2586 H   0  0  0  0  0  0  0  0  0  0  0  0
   -5.5968   -4.4138    1.6959 H   0  0  0  0  0  0  0  0  0  0  0  0
   -6.6478   -4.4194    3.1297 H   0  0  0  0  0  0  0  0  0  0  0  0
   -3.9299   -5.4087    3.2914 H   0  0  0  0  0  0  0  0  0  0  0  0
   -6.9512   -7.3382    5.9368 H   0  0  0  0  0  0  0  0  0  0  0  0
   -9.3758   -7.4877    5.9999 H   0  0  0  0  0  0  0  0  0  0  0  0
  -13.9018  -12.1504    2.2341 H   0  0  0  0  0  0  0  0  0  0  0  0
  -13.7649  -13.9857    0.6550 H   0  0  0  0  0  0  0  0  0  0  0  0
  -14.4236  -13.6520   -1.6554 H   0  0  0  0  0  0  0  0  0  0  0  0
  -15.1899  -11.4738   -2.3978 H   0  0  0  0  0  0  0  0  0  0  0  0
  -15.2478   -9.6126   -0.8453 H   0  0  0  0  0  0  0  0  0  0  0  0
  -17.3535  -10.4205    1.2723 H   0  0  0  0  0  0  0  0  0  0  0  0
  -19.1593   -8.8689    2.3379 H   0  0  0  0  0  0  0  0  0  0  0  0
  -15.4216   -7.4249    3.3828 H   0  0  0  0  0  0  0  0  0  0  0  0
  -19.7899   -4.9557    2.7811 H   0  0  0  0  0  0  0  0  0  0  0  0
  -22.2079   -4.8740    2.9543 H   0  0  0  0  0  0  0  0  0  0  0  0
  -23.3920   -6.5534    4.2430 H   0  0  0  0  0  0  0  0  0  0  0  0
  -22.1586   -8.2991    5.3897 H   0  0  0  0  0  0  0  0  0  0  0  0
  -19.7370   -8.3404    5.2873 H   0  0  0  0  0  0  0  0  0  0  0  0
  -15.2026   -3.8581    8.5962 H   0  0  0  0  0  0  0  0  0  0  0  0
  -15.2949   -1.9070   10.0329 H   0  0  0  0  0  0  0  0  0  0  0  0
  -14.5977    0.2576    9.1892 H   0  0  0  0  0  0  0  0  0  0  0  0
  -13.8308    0.4777    6.8987 H   0  0  0  0  0  0  0  0  0  0  0  0
  -13.8110   -1.4534    5.4324 H   0  0  0  0  0  0  0  0  0  0  0  0
  -11.8256   -3.2928    6.6473 H   0  0  0  0  0  0  0  0  0  0  0  0
  -10.0655   -4.7658    5.5573 H   0  0  0  0  0  0  0  0  0  0  0  0
  -13.8007   -6.2053    4.4352 H   0  0  0  0  0  0  0  0  0  0  0  0
  -17.1549   -3.0906    6.5257 H   0  0  0  0  0  0  0  0  0  0  0  0
  -18.9767   -4.6020    5.5498 H   0  0  0  0  0  0  0  0  0  0  0  0
  -12.0016  -10.3082    1.1303 H   0  0  0  0  0  0  0  0  0  0  0  0
  -10.1696   -9.1134    2.4625 H   0  0  0  0  0  0  0  0  0  0  0  0
   -9.5372   -6.5169    1.9021 H   0  0  0  0  0  0  0  0  0  0  0  0
   -7.1160   -6.6000    1.7964 H   0  0  0  0  0  0  0  0  0  0  0  0
  1  2  1  0  0  0  0
  1 73  1  0  0  0  0
  1 74  1  0  0  0  0
  1 75  1  0  0  0  0
  2  3  1  0  0  0  0
  2  4  1  0  0  0  0
  2 76  1  0  0  0  0
  3 77  1  0  0  0  0
  3 78  1  0  0  0  0
  3 79  1  0  0  0  0
  4  5  1  0  0  0  0
  4 80  1  0  0  0  0
  4 81  1  0  0  0  0
  5  6  1  0  0  0  0
  5 15  1  0  0  0  0
  5 82  1  6  0  0  0
  6  7  1  0  0  0  0
  6 83  1  0  0  0  0
  6 84  1  0  0  0  0
  7  8  1  0  0  0  0
  7 85  1  0  0  0  0
  8  9  2  0  0  0  0
  8 10  1  0  0  0  0
 10 11  1  0  0  0  0
 10 14  1  0  0  0  0
 10 86  1  6  0  0  0
 11 12  1  0  0  0  0
 11 87  1  0  0  0  0
 11 88  1  0  0  0  0
 12 13  1  0  0  0  0
 12 89  1  0  0  0  0
 12 90  1  0  0  0  0
 13 14  1  0  0  0  0
 14 91  1  0  0  0  0
 14 92  1  0  0  0  0
 15 16  2  0  0  0  0
 15 17  1  0  0  0  0
 17 18  1  0  0  0  0
 17 93  1  0  0  0  0
 18 19  1  0  0  0  0
 18 94  1  0  0  0  0
 18 95  1  0  0  0  0
 19 20  1  0  0  0  0
 19 96  1  0  0  0  0
 19 97  1  0  0  0  0
 20 21  1  0  0  0  0
 20 98  1  0  0  0  0
 20 99  1  0  0  0  0
 21 22  1  0  0  0  0
 21100  1  0  0  0  0
 21101  1  0  0  0  0
 22 23  1  0  0  0  0
 22102  1  0  0  0  0
 23 24  2  0  0  0  0
 23 25  1  0  0  0  0
 25 26  1  0  0  0  0
 25 72  2  0  0  0  0
 26 27  2  0  0  0  0
 26103  1  0  0  0  0
 27 28  1  0  0  0  0
 27104  1  0  0  0  0
 28 29  1  0  0  0  0
 28 71  2  0  0  0  0
 29 30  1  0  0  0  0
 29 65  2  0  0  0  0
 30 31  2  0  0  0  0
 30 70  1  0  0  0  0
 31 32  1  0  0  0  0
 32 33  2  0  0  0  0
 32 69  1  0  0  0  0
 33 34  1  0  0  0  0
 33 40  1  0  0  0  0
 34 35  1  0  0  0  0
 34 39  2  0  0  0  0
 35 36  2  0  0  0  0
 35105  1  0  0  0  0
 36 37  1  0  0  0  0
 36106  1  0  0  0  0
 37 38  2  0  0  0  0
 37107  1  0  0  0  0
 38 39  1  0  0  0  0
 38108  1  0  0  0  0
 39109  1  0  0  0  0
 40 41  2  0  0  0  0
 40 44  1  0  0  0  0
 41 42  1  0  0  0  0
 41110  1  0  0  0  0
 42 43  2  0  0  0  0
 42111  1  0  0  0  0
 43 44  1  0  0  0  0
 43 45  1  0  0  0  0
 44112  1  0  0  0  0
 45 46  1  0  0  0  0
 45 52  2  0  0  0  0
 46 47  1  0  0  0  0
 46 51  2  0  0  0  0
 47 48  2  0  0  0  0
 47113  1  0  0  0  0
 48 49  1  0  0  0  0
 48114  1  0  0  0  0
 49 50  2  0  0  0  0
 49115  1  0  0  0  0
 50 51  1  0  0  0  0
 50116  1  0  0  0  0
 51117  1  0  0  0  0
 52 53  1  0  0  0  0
 52 68  1  0  0  0  0
 53 54  2  0  0  0  0
 54 55  1  0  0  0  0
 54 67  1  0  0  0  0
 55 56  1  0  0  0  0
 55 62  2  0  0  0  0
 56 57  1  0  0  0  0
 56 61  2  0  0  0  0
 57 58  2  0  0  0  0
 57118  1  0  0  0  0
 58 59  1  0  0  0  0
 58119  1  0  0  0  0
 59 60  2  0  0  0  0
 59120  1  0  0  0  0
 60 61  1  0  0  0  0
 60121  1  0  0  0  0
 61122  1  0  0  0  0
 62 63  1  0  0  0  0
 62 66  1  0  0  0  0
 63 64  2  0  0  0  0
 63123  1  0  0  0  0
 64 65  1  0  0  0  0
 64124  1  0  0  0  0
 65 66  1  0  0  0  0
 66125  1  0  0  0  0
 67 68  2  0  0  0  0
 67126  1  0  0  0  0
 68127  1  0  0  0  0
 69 70  2  0  0  0  0
 69128  1  0  0  0  0
 70129  1  0  0  0  0
 71 72  1  0  0  0  0
 71130  1  0  0  0  0
 72131  1  0  0  0  0
M  END
$$$$
