2_2_9424
 OpenBabel04152301363D

137149  0  0  1  0  0  0  0  0999 V2000
    1.6379    0.1247    0.3581 C   0  0  0  0  0  0  0  0  0  0  0  0
    0.7253    0.8545   -0.6075 C   0  0  0  0  0  0  0  0  0  0  0  0
    0.8644    0.5956   -2.1139 C   0  0  1  0  0  0  0  0  0  0  0  0
    0.1098   -0.9379   -2.8118 S   0  0  0  0  0  0  0  0  0  0  0  0
    1.0516   -2.2320   -2.1578 C   0  0  0  0  0  0  0  0  0  0  0  0
    2.0950   -2.0739   -1.3767 N   0  0  0  0  0  0  0  0  0  0  0  0
    2.2956   -3.2458   -0.6930 N   0  0  0  0  0  0  0  0  0  0  0  0
    1.4351   -4.1273   -1.1534 C   0  0  0  0  0  0  0  0  0  0  0  0
    1.1775   -5.4611   -0.7605 C   0  0  0  0  0  0  0  0  0  0  0  0
    0.3945   -6.2454   -1.5141 C   0  0  0  0  0  0  0  0  0  0  0  0
   -0.1867   -5.7321   -2.7619 C   0  0  0  0  0  0  0  0  0  0  0  0
   -0.8542   -6.6010   -3.6304 C   0  0  0  0  0  0  0  0  0  0  0  0
   -1.3758   -6.1220   -4.8313 C   0  0  0  0  0  0  0  0  0  0  0  0
   -1.2423   -4.7740   -5.1634 C   0  0  0  0  0  0  0  0  0  0  0  0
   -0.5806   -3.8919   -4.3037 C   0  0  0  0  0  0  0  0  0  0  0  0
   -0.0528   -4.3678   -3.1016 C   0  0  0  0  0  0  0  0  0  0  0  0
    0.7305   -3.5761   -2.2190 N   0  0  0  0  0  0  0  0  0  0  0  0
    0.3116    1.8004   -2.9320 C   0  0  0  0  0  0  0  0  0  0  0  0
    1.0674    2.4155   -3.6985 O   0  0  0  0  0  0  0  0  0  0  0  0
   -1.0035    2.2199   -2.9223 N   0  0  0  0  0  0  0  0  0  0  0  0
   -2.1141    1.5641   -2.3714 C   0  0  0  0  0  0  0  0  0  0  0  0
   -2.2981    1.4245   -1.0071 C   0  0  0  0  0  0  0  0  0  0  0  0
   -3.2141    0.4950   -0.5308 C   0  0  0  0  0  0  0  0  0  0  0  0
   -4.0063   -0.2162   -1.4333 C   0  0  0  0  0  0  0  0  0  0  0  0
   -3.9624    0.0515   -2.8164 C   0  0  0  0  0  0  0  0  0  0  0  0
   -4.8760   -0.7599   -3.6797 C   0  0  0  0  0  0  0  0  0  0  0  0
   -5.6278   -1.5733   -3.1262 O   0  0  0  0  0  0  0  0  0  0  0  0
   -4.9710   -0.7218   -5.0458 N   0  0  0  0  0  0  0  0  0  0  0  0
   -4.4321    0.1053   -6.1091 C   0  0  0  0  0  0  0  0  0  0  0  0
   -3.6992   -0.6930   -7.1831 C   0  0  0  0  0  0  0  0  0  0  0  0
   -4.6056   -1.3887   -8.1963 C   0  0  0  0  0  0  0  0  0  0  0  0
   -5.6653   -0.5558   -8.7338 N   0  0  0  0  0  0  0  0  0  0  0  0
   -5.8064    0.3028   -9.7829 C   0  0  0  0  0  0  0  0  0  0  0  0
   -6.9639    0.6970   -9.9899 O   0  0  0  0  0  0  0  0  0  0  0  0
   -4.7185    0.8522  -10.6364 C   0  0  0  0  0  0  0  0  0  0  0  0
   -3.3544    0.6279  -10.4701 C   0  0  0  0  0  0  0  0  0  0  0  0
   -2.4286    1.3738  -11.2053 C   0  0  0  0  0  0  0  0  0  0  0  0
   -2.8524    2.3314  -12.1411 C   0  0  0  0  0  0  0  0  0  0  0  0
   -1.8347    3.0472  -12.9148 C   0  0  0  0  0  0  0  0  0  0  0  0
   -0.9090    2.1645  -13.6769 C   0  0  0  0  0  0  0  0  0  0  0  0
    0.3591    2.0129  -13.4853 N   0  0  0  0  0  0  0  0  0  0  0  0
    0.7965    1.1098  -14.4489 C   0  0  0  0  0  0  0  0  0  0  0  0
    2.1164    0.9802  -14.7593 C   0  0  0  0  0  0  0  0  0  0  0  0
    2.6310    0.6414  -16.1339 C   0  0  0  0  0  0  0  0  0  0  0  0
    1.8305    0.6825  -17.2897 C   0  0  0  0  0  0  0  0  0  0  0  0
    2.3819    0.6566  -18.5738 C   0  0  0  0  0  0  0  0  0  0  0  0
    3.7589    0.6232  -18.7365 C   0  0  0  0  0  0  0  0  0  0  0  0
    4.5797    0.5579  -17.6163 C   0  0  0  0  0  0  0  0  0  0  0  0
    4.0213    0.5403  -16.3326 C   0  0  0  0  0  0  0  0  0  0  0  0
    2.9619    1.5559  -13.7458 C   0  0  0  0  0  0  0  0  0  0  0  0
    3.1263    1.3333  -12.3920 C   0  0  0  0  0  0  0  0  0  0  0  0
    3.2863    2.6313  -11.8300 C   0  0  0  0  0  0  0  0  0  0  0  0
    3.3048    3.5523  -12.8785 C   0  0  0  0  0  0  0  0  0  0  0  0
    3.5234    2.7859  -13.9938 N   0  0  0  0  0  0  0  0  0  0  0  0
    3.0499    4.9756  -12.9132 C   0  0  0  0  0  0  0  0  0  0  0  0
    3.1045    5.6920  -11.5820 C   0  0  0  0  0  0  0  0  0  0  0  0
    4.2848    5.5784  -10.8267 C   0  0  0  0  0  0  0  0  0  0  0  0
    4.3446    6.0224   -9.5046 C   0  0  0  0  0  0  0  0  0  0  0  0
    3.2318    6.6198   -8.9204 C   0  0  0  0  0  0  0  0  0  0  0  0
    2.0588    6.7683   -9.6574 C   0  0  0  0  0  0  0  0  0  0  0  0
    1.9889    6.2919  -10.9725 C   0  0  0  0  0  0  0  0  0  0  0  0
    2.5294    5.6129  -14.0034 C   0  0  0  0  0  0  0  0  0  0  0  0
    1.8441    6.8117  -13.8846 N   0  0  0  0  0  0  0  0  0  0  0  0
    0.9940    6.7973  -14.8697 C   0  0  0  0  0  0  0  0  0  0  0  0
   -0.4005    7.2840  -14.7582 C   0  0  0  0  0  0  0  0  0  0  0  0
   -0.9489    8.2767  -15.7159 C   0  0  0  0  0  0  0  0  0  0  0  0
   -2.2424    8.1125  -16.2424 C   0  0  0  0  0  0  0  0  0  0  0  0
   -2.6585    8.8046  -17.3854 C   0  0  0  0  0  0  0  0  0  0  0  0
   -1.7899    9.6813  -18.0258 C   0  0  0  0  0  0  0  0  0  0  0  0
   -0.5192    9.8961  -17.4988 C   0  0  0  0  0  0  0  0  0  0  0  0
   -0.1039    9.2059  -16.3500 C   0  0  0  0  0  0  0  0  0  0  0  0
   -1.0806    6.4197  -13.9601 C   0  0  0  0  0  0  0  0  0  0  0  0
   -2.3359    6.5957  -13.2474 C   0  0  0  0  0  0  0  0  0  0  0  0
   -2.6695    5.4296  -12.6430 C   0  0  0  0  0  0  0  0  0  0  0  0
   -1.7281    4.3866  -13.0516 C   0  0  0  0  0  0  0  0  0  0  0  0
   -0.7489    5.0979  -13.6890 N   0  0  0  0  0  0  0  0  0  0  0  0
    1.3106    5.8915  -15.9618 C   0  0  0  0  0  0  0  0  0  0  0  0
    2.2201    5.1301  -15.3495 C   0  0  0  0  0  0  0  0  0  0  0  0
   -0.3902    0.5979  -15.0890 C   0  0  0  0  0  0  0  0  0  0  0  0
   -1.4752    1.2671  -14.6939 C   0  0  0  0  0  0  0  0  0  0  0  0
   -4.2079    2.4808  -12.3957 C   0  0  0  0  0  0  0  0  0  0  0  0
   -5.1262    1.7531  -11.6431 C   0  0  0  0  0  0  0  0  0  0  0  0
   -3.0278    0.9890   -3.2556 C   0  0  0  0  0  0  0  0  0  0  0  0
    1.4069    0.4207    1.3601 H   0  0  0  0  0  0  0  0  0  0  0  0
    2.6565    0.3689    0.1399 H   0  0  0  0  0  0  0  0  0  0  0  0
    1.4944   -0.9307    0.2559 H   0  0  0  0  0  0  0  0  0  0  0  0
    0.8829    1.9018   -0.4549 H   0  0  0  0  0  0  0  0  0  0  0  0
   -0.2471    0.4741   -0.3738 H   0  0  0  0  0  0  0  0  0  0  0  0
    1.9211    0.4577   -2.2107 H   0  0  0  0  0  0  0  0  0  0  0  0
    1.5933   -5.8313    0.1084 H   0  0  0  0  0  0  0  0  0  0  0  0
    0.1990   -7.2141   -1.2166 H   0  0  0  0  0  0  0  0  0  0  0  0
   -0.9608   -7.5971   -3.3825 H   0  0  0  0  0  0  0  0  0  0  0  0
   -1.8614   -6.7657   -5.4754 H   0  0  0  0  0  0  0  0  0  0  0  0
   -1.6353   -4.4246   -6.0514 H   0  0  0  0  0  0  0  0  0  0  0  0
   -0.4829   -2.8959   -4.5558 H   0  0  0  0  0  0  0  0  0  0  0  0
   -1.1839    3.0855   -3.3552 H   0  0  0  0  0  0  0  0  0  0  0  0
   -1.7585    2.0070   -0.3479 H   0  0  0  0  0  0  0  0  0  0  0  0
   -3.3082    0.3314    0.4838 H   0  0  0  0  0  0  0  0  0  0  0  0
   -4.6370   -0.9530   -1.0808 H   0  0  0  0  0  0  0  0  0  0  0  0
   -5.5518   -1.4363   -5.3941 H   0  0  0  0  0  0  0  0  0  0  0  0
   -3.7467    0.8060   -5.6799 H   0  0  0  0  0  0  0  0  0  0  0  0
   -5.2597    0.5895   -6.5840 H   0  0  0  0  0  0  0  0  0  0  0  0
   -3.1086   -1.4409   -6.6966 H   0  0  0  0  0  0  0  0  0  0  0  0
   -3.1158    0.0128   -7.7366 H   0  0  0  0  0  0  0  0  0  0  0  0
   -5.0558   -2.2326   -7.7166 H   0  0  0  0  0  0  0  0  0  0  0  0
   -3.9832   -1.6576   -9.0241 H   0  0  0  0  0  0  0  0  0  0  0  0
   -6.4933   -0.6297   -8.2063 H   0  0  0  0  0  0  0  0  0  0  0  0
   -3.0268   -0.0891   -9.8040 H   0  0  0  0  0  0  0  0  0  0  0  0
   -1.4190    1.2185  -11.0583 H   0  0  0  0  0  0  0  0  0  0  0  0
    0.8049    0.7333  -17.1865 H   0  0  0  0  0  0  0  0  0  0  0  0
    1.7645    0.6623  -19.4007 H   0  0  0  0  0  0  0  0  0  0  0  0
    4.1712    0.6467  -19.6823 H   0  0  0  0  0  0  0  0  0  0  0  0
    5.6046    0.5223  -17.7315 H   0  0  0  0  0  0  0  0  0  0  0  0
    4.6427    0.4512  -15.5135 H   0  0  0  0  0  0  0  0  0  0  0  0
    3.1319    0.4272  -11.8980 H   0  0  0  0  0  0  0  0  0  0  0  0
    3.3732    2.8521  -10.8257 H   0  0  0  0  0  0  0  0  0  0  0  0
    3.9921    3.0629  -14.8141 H   0  0  0  0  0  0  0  0  0  0  0  0
    5.1232    5.1587  -11.2580 H   0  0  0  0  0  0  0  0  0  0  0  0
    5.2140    5.9076   -8.9605 H   0  0  0  0  0  0  0  0  0  0  0  0
    3.2753    6.9518   -7.9442 H   0  0  0  0  0  0  0  0  0  0  0  0
    1.2394    7.2305   -9.2332 H   0  0  0  0  0  0  0  0  0  0  0  0
    1.1071    6.3824  -11.5009 H   0  0  0  0  0  0  0  0  0  0  0  0
   -2.8992    7.4676  -15.7758 H   0  0  0  0  0  0  0  0  0  0  0  0
   -3.6122    8.6639  -17.7538 H   0  0  0  0  0  0  0  0  0  0  0  0
   -2.0850   10.1694  -18.8858 H   0  0  0  0  0  0  0  0  0  0  0  0
    0.1199   10.5658  -17.9551 H   0  0  0  0  0  0  0  0  0  0  0  0
    0.8367    9.3827  -15.9639 H   0  0  0  0  0  0  0  0  0  0  0  0
   -2.8848    7.4688  -13.2082 H   0  0  0  0  0  0  0  0  0  0  0  0
   -3.4628    5.2979  -11.9962 H   0  0  0  0  0  0  0  0  0  0  0  0
    0.1197    4.7055  -13.9355 H   0  0  0  0  0  0  0  0  0  0  0  0
    0.9417    5.8496  -16.9247 H   0  0  0  0  0  0  0  0  0  0  0  0
    2.6549    4.2971  -15.7763 H   0  0  0  0  0  0  0  0  0  0  0  0
   -0.3992   -0.1830  -15.7637 H   0  0  0  0  0  0  0  0  0  0  0  0
   -2.4515    1.1782  -15.0165 H   0  0  0  0  0  0  0  0  0  0  0  0
   -4.5321    3.1241  -13.1347 H   0  0  0  0  0  0  0  0  0  0  0  0
   -6.1342    1.8763  -11.8269 H   0  0  0  0  0  0  0  0  0  0  0  0
   -3.0117    1.2618   -4.2507 H   0  0  0  0  0  0  0  0  0  0  0  0
  1  2  1  0  0  0  0
  1 84  1  0  0  0  0
  1 85  1  0  0  0  0
  1 86  1  0  0  0  0
  2  3  1  0  0  0  0
  2 87  1  0  0  0  0
  2 88  1  0  0  0  0
  3  4  1  0  0  0  0
  3 18  1  0  0  0  0
  3 89  1  6  0  0  0
  4  5  1  0  0  0  0
  5  6  2  0  0  0  0
  5 17  1  0  0  0  0
  6  7  1  0  0  0  0
  7  8  2  0  0  0  0
  8  9  1  0  0  0  0
  8 17  1  0  0  0  0
  9 10  2  0  0  0  0
  9 90  1  0  0  0  0
 10 11  1  0  0  0  0
 10 91  1  0  0  0  0
 11 12  1  0  0  0  0
 11 16  2  0  0  0  0
 12 13  2  0  0  0  0
 12 92  1  0  0  0  0
 13 14  1  0  0  0  0
 13 93  1  0  0  0  0
 14 15  2  0  0  0  0
 14 94  1  0  0  0  0
 15 16  1  0  0  0  0
 15 95  1  0  0  0  0
 16 17  1  0  0  0  0
 18 19  2  0  0  0  0
 18 20  1  0  0  0  0
 20 21  1  0  0  0  0
 20 96  1  0  0  0  0
 21 22  1  0  0  0  0
 21 83  2  0  0  0  0
 22 23  2  0  0  0  0
 22 97  1  0  0  0  0
 23 24  1  0  0  0  0
 23 98  1  0  0  0  0
 24 25  2  0  0  0  0
 24 99  1  0  0  0  0
 25 26  1  0  0  0  0
 25 83  1  0  0  0  0
 26 27  2  0  0  0  0
 26 28  1  0  0  0  0
 28 29  1  0  0  0  0
 28100  1  0  0  0  0
 29 30  1  0  0  0  0
 29101  1  0  0  0  0
 29102  1  0  0  0  0
 30 31  1  0  0  0  0
 30103  1  0  0  0  0
 30104  1  0  0  0  0
 31 32  1  0  0  0  0
 31105  1  0  0  0  0
 31106  1  0  0  0  0
 32 33  1  0  0  0  0
 32107  1  0  0  0  0
 33 34  2  0  0  0  0
 33 35  1  0  0  0  0
 35 36  1  0  0  0  0
 35 82  2  0  0  0  0
 36 37  2  0  0  0  0
 36108  1  0  0  0  0
 37 38  1  0  0  0  0
 37109  1  0  0  0  0
 38 39  1  0  0  0  0
 38 81  2  0  0  0  0
 39 40  1  0  0  0  0
 39 75  2  0  0  0  0
 40 41  2  0  0  0  0
 40 80  1  0  0  0  0
 41 42  1  0  0  0  0
 42 43  2  0  0  0  0
 42 79  1  0  0  0  0
 43 44  1  0  0  0  0
 43 50  1  0  0  0  0
 44 45  1  0  0  0  0
 44 49  2  0  0  0  0
 45 46  2  0  0  0  0
 45110  1  0  0  0  0
 46 47  1  0  0  0  0
 46111  1  0  0  0  0
 47 48  2  0  0  0  0
 47112  1  0  0  0  0
 48 49  1  0  0  0  0
 48113  1  0  0  0  0
 49114  1  0  0  0  0
 50 51  2  0  0  0  0
 50 54  1  0  0  0  0
 51 52  1  0  0  0  0
 51115  1  0  0  0  0
 52 53  2  0  0  0  0
 52116  1  0  0  0  0
 53 54  1  0  0  0  0
 53 55  1  0  0  0  0
 54117  1  0  0  0  0
 55 56  1  0  0  0  0
 55 62  2  0  0  0  0
 56 57  1  0  0  0  0
 56 61  2  0  0  0  0
 57 58  2  0  0  0  0
 57118  1  0  0  0  0
 58 59  1  0  0  0  0
 58119  1  0  0  0  0
 59 60  2  0  0  0  0
 59120  1  0  0  0  0
 60 61  1  0  0  0  0
 60121  1  0  0  0  0
 61122  1  0  0  0  0
 62 63  1  0  0  0  0
 62 78  1  0  0  0  0
 63 64  2  0  0  0  0
 64 65  1  0  0  0  0
 64 77  1  0  0  0  0
 65 66  1  0  0  0  0
 65 72  2  0  0  0  0
 66 67  1  0  0  0  0
 66 71  2  0  0  0  0
 67 68  2  0  0  0  0
 67123  1  0  0  0  0
 68 69  1  0  0  0  0
 68124  1  0  0  0  0
 69 70  2  0  0  0  0
 69125  1  0  0  0  0
 70 71  1  0  0  0  0
 70126  1  0  0  0  0
 71127  1  0  0  0  0
 72 73  1  0  0  0  0
 72 76  1  0  0  0  0
 73 74  2  0  0  0  0
 73128  1  0  0  0  0
 74 75  1  0  0  0  0
 74129  1  0  0  0  0
 75 76  1  0  0  0  0
 76130  1  0  0  0  0
 77 78  2  0  0  0  0
 77131  1  0  0  0  0
 78132  1  0  0  0  0
 79 80  2  0  0  0  0
 79133  1  0  0  0  0
 80134  1  0  0  0  0
 81 82  1  0  0  0  0
 81135  1  0  0  0  0
 82136  1  0  0  0  0
 83137  1  0  0  0  0
M  END
$$$$
