2_2_8942
 OpenBabel04152301373D

123132  0  0  1  0  0  0  0  0999 V2000
    2.6094    0.0134   -0.6242 C   0  0  0  0  0  0  0  0  0  0  0  0
    1.1971    0.1790   -0.0545 C   0  0  1  0  0  0  0  0  0  0  0  0
    0.4852    1.3518   -0.7430 C   0  0  0  0  0  0  0  0  0  0  0  0
   -1.0126    1.4669   -0.4622 C   0  0  0  0  0  0  0  0  0  0  0  0
   -1.7596    0.1367   -0.4587 C   0  0  0  0  0  0  0  0  0  0  0  0
   -1.0617   -1.0380    0.2606 C   0  0  2  0  0  0  0  0  0  0  0  0
   -1.3655   -1.2442    1.8167 C   0  0  0  0  0  0  0  0  0  0  0  0
   -2.8915   -1.4675    1.9609 C   0  0  0  0  0  0  0  0  0  0  0  0
   -0.6236   -2.5166    2.2793 C   0  0  0  0  0  0  0  0  0  0  0  0
   -0.9813   -0.0529    2.7224 C   0  0  0  0  0  0  0  0  0  0  0  0
   -0.4561    0.9760    2.2989 O   0  0  0  0  0  0  0  0  0  0  0  0
   -1.2098   -0.0063    4.0556 N   0  0  0  0  0  0  0  0  0  0  0  0
   -1.5585   -0.9790    5.0702 C   0  0  0  0  0  0  0  0  0  0  0  0
   -0.3281   -1.4221    5.8573 C   0  0  0  0  0  0  0  0  0  0  0  0
    0.4789   -0.2717    6.4582 C   0  0  0  0  0  0  0  0  0  0  0  0
   -0.3159    0.5811    7.3327 N   0  0  0  0  0  0  0  0  0  0  0  0
   -0.2411    0.7837    8.6852 C   0  0  0  0  0  0  0  0  0  0  0  0
   -1.1406    1.3972    9.2603 O   0  0  0  0  0  0  0  0  0  0  0  0
    0.8959    0.2554    9.4636 C   0  0  0  0  0  0  0  0  0  0  0  0
    0.6434   -0.3471   10.6988 C   0  0  0  0  0  0  0  0  0  0  0  0
    1.6987   -0.8898   11.4333 C   0  0  0  0  0  0  0  0  0  0  0  0
    3.0050   -0.8717   10.9176 C   0  0  0  0  0  0  0  0  0  0  0  0
    4.1232   -1.5207   11.6459 C   0  0  0  0  0  0  0  0  0  0  0  0
    5.2719   -0.7011   12.1654 C   0  0  0  0  0  0  0  0  0  0  0  0
    6.3508   -1.0980   12.7924 N   0  0  0  0  0  0  0  0  0  0  0  0
    7.1053    0.0483   13.0074 C   0  0  0  0  0  0  0  0  0  0  0  0
    8.2815    0.1789   13.6663 C   0  0  0  0  0  0  0  0  0  0  0  0
    8.8761    1.5574   13.7517 C   0  0  0  0  0  0  0  0  0  0  0  0
    8.2904    2.5543   14.5488 C   0  0  0  0  0  0  0  0  0  0  0  0
    8.8512    3.8318   14.6106 C   0  0  0  0  0  0  0  0  0  0  0  0
   10.0220    4.1145   13.9084 C   0  0  0  0  0  0  0  0  0  0  0  0
   10.6292    3.1249   13.1367 C   0  0  0  0  0  0  0  0  0  0  0  0
   10.0545    1.8553   13.0501 C   0  0  0  0  0  0  0  0  0  0  0  0
    8.9914   -0.9118   14.2794 C   0  0  0  0  0  0  0  0  0  0  0  0
   10.1590   -0.8722   15.0218 C   0  0  0  0  0  0  0  0  0  0  0  0
   10.4998   -2.1836   15.3702 C   0  0  0  0  0  0  0  0  0  0  0  0
    9.5159   -3.0329   14.8901 C   0  0  0  0  0  0  0  0  0  0  0  0
    8.6003   -2.2401   14.2186 N   0  0  0  0  0  0  0  0  0  0  0  0
    9.4183   -4.4623   15.0313 C   0  0  0  0  0  0  0  0  0  0  0  0
   10.4915   -5.1704   15.8082 C   0  0  0  0  0  0  0  0  0  0  0  0
   11.4343   -5.9893   15.1676 C   0  0  0  0  0  0  0  0  0  0  0  0
   12.4175   -6.6463   15.9100 C   0  0  0  0  0  0  0  0  0  0  0  0
   12.4904   -6.4618   17.2904 C   0  0  0  0  0  0  0  0  0  0  0  0
   11.5770   -5.6278   17.9333 C   0  0  0  0  0  0  0  0  0  0  0  0
   10.5753   -4.9930   17.1980 C   0  0  0  0  0  0  0  0  0  0  0  0
    8.4104   -5.2233   14.5394 C   0  0  0  0  0  0  0  0  0  0  0  0
    7.2936   -4.8301   13.8142 N   0  0  0  0  0  0  0  0  0  0  0  0
    6.6301   -5.9308   13.5565 C   0  0  0  0  0  0  0  0  0  0  0  0
    5.3269   -6.1024   12.8291 C   0  0  0  0  0  0  0  0  0  0  0  0
    4.7268   -7.4505   12.6556 C   0  0  0  0  0  0  0  0  0  0  0  0
    4.1891   -8.1357   13.7559 C   0  0  0  0  0  0  0  0  0  0  0  0
    3.6518   -9.4152   13.5991 C   0  0  0  0  0  0  0  0  0  0  0  0
    3.6174  -10.0082   12.3381 C   0  0  0  0  0  0  0  0  0  0  0  0
    4.1275   -9.3281   11.2335 C   0  0  0  0  0  0  0  0  0  0  0  0
    4.6909   -8.0603   11.3921 C   0  0  0  0  0  0  0  0  0  0  0  0
    4.6926   -5.0160   12.3508 C   0  0  0  0  0  0  0  0  0  0  0  0
    3.4201   -5.0298   11.6377 C   0  0  0  0  0  0  0  0  0  0  0  0
    3.1006   -3.7734   11.2887 C   0  0  0  0  0  0  0  0  0  0  0  0
    4.1312   -2.8603   11.7889 C   0  0  0  0  0  0  0  0  0  0  0  0
    5.0414   -3.6882   12.3961 N   0  0  0  0  0  0  0  0  0  0  0  0
    7.2645   -7.1530   14.0697 C   0  0  0  0  0  0  0  0  0  0  0  0
    8.3234   -6.6608   14.6970 C   0  0  0  0  0  0  0  0  0  0  0  0
    6.3863    1.1479   12.4021 C   0  0  0  0  0  0  0  0  0  0  0  0
    5.2147    0.7502   11.9284 C   0  0  0  0  0  0  0  0  0  0  0  0
    3.2482   -0.2359    9.6914 C   0  0  0  0  0  0  0  0  0  0  0  0
    2.2076    0.3752    8.9976 C   0  0  0  0  0  0  0  0  0  0  0  0
    0.4080   -1.1201   -0.2045 C   0  0  0  0  0  0  0  0  0  0  0  0
    3.1491    0.9305   -0.5120 H   0  0  0  0  0  0  0  0  0  0  0  0
    2.5479   -0.2396   -1.6620 H   0  0  0  0  0  0  0  0  0  0  0  0
    3.1177   -0.7664   -0.0965 H   0  0  0  0  0  0  0  0  0  0  0  0
    1.2636    0.4003    0.9902 H   0  0  0  0  0  0  0  0  0  0  0  0
    0.6153    1.2424   -1.7994 H   0  0  0  0  0  0  0  0  0  0  0  0
    0.9285    2.2402   -0.3442 H   0  0  0  0  0  0  0  0  0  0  0  0
   -1.4466    2.0919   -1.2144 H   0  0  0  0  0  0  0  0  0  0  0  0
   -1.1072    1.8716    0.5238 H   0  0  0  0  0  0  0  0  0  0  0  0
   -1.9166   -0.1517   -1.4771 H   0  0  0  0  0  0  0  0  0  0  0  0
   -2.6585    0.3158    0.0934 H   0  0  0  0  0  0  0  0  0  0  0  0
   -1.5439   -1.9378   -0.0600 H   0  0  0  0  0  0  0  0  0  0  0  0
   -3.1916   -2.2887    1.3442 H   0  0  0  0  0  0  0  0  0  0  0  0
   -3.4117   -0.5836    1.6559 H   0  0  0  0  0  0  0  0  0  0  0  0
   -3.1253   -1.6844    2.9823 H   0  0  0  0  0  0  0  0  0  0  0  0
   -0.8945   -3.3368    1.6479 H   0  0  0  0  0  0  0  0  0  0  0  0
   -0.8946   -2.7399    3.2900 H   0  0  0  0  0  0  0  0  0  0  0  0
    0.4325   -2.3549    2.2206 H   0  0  0  0  0  0  0  0  0  0  0  0
   -1.1171    0.9028    4.4218 H   0  0  0  0  0  0  0  0  0  0  0  0
   -1.9971   -1.8333    4.5983 H   0  0  0  0  0  0  0  0  0  0  0  0
   -2.2500   -0.5262    5.7497 H   0  0  0  0  0  0  0  0  0  0  0  0
    0.3111   -1.9724    5.1990 H   0  0  0  0  0  0  0  0  0  0  0  0
   -0.6832   -2.0100    6.6777 H   0  0  0  0  0  0  0  0  0  0  0  0
    0.8684    0.3256    5.6604 H   0  0  0  0  0  0  0  0  0  0  0  0
    1.2593   -0.7015    7.0508 H   0  0  0  0  0  0  0  0  0  0  0  0
   -1.0213    1.0952    6.8773 H   0  0  0  0  0  0  0  0  0  0  0  0
   -0.3199   -0.3906   11.0666 H   0  0  0  0  0  0  0  0  0  0  0  0
    1.5183   -1.3065   12.3600 H   0  0  0  0  0  0  0  0  0  0  0  0
    7.4396    2.3413   15.0927 H   0  0  0  0  0  0  0  0  0  0  0  0
    8.3988    4.5669   15.1763 H   0  0  0  0  0  0  0  0  0  0  0  0
   10.4394    5.0569   13.9599 H   0  0  0  0  0  0  0  0  0  0  0  0
   11.5039    3.3308   12.6292 H   0  0  0  0  0  0  0  0  0  0  0  0
   10.4997    1.1305   12.4657 H   0  0  0  0  0  0  0  0  0  0  0  0
   10.6869   -0.0222   15.2746 H   0  0  0  0  0  0  0  0  0  0  0  0
   11.3408   -2.4697   15.8954 H   0  0  0  0  0  0  0  0  0  0  0  0
    7.7915   -2.5710   13.7652 H   0  0  0  0  0  0  0  0  0  0  0  0
   11.4007   -6.1064   14.1428 H   0  0  0  0  0  0  0  0  0  0  0  0
   13.0908   -7.2690   15.4368 H   0  0  0  0  0  0  0  0  0  0  0  0
   13.2216   -6.9434   17.8367 H   0  0  0  0  0  0  0  0  0  0  0  0
   11.6416   -5.4799   18.9526 H   0  0  0  0  0  0  0  0  0  0  0  0
    9.8912   -4.3887   17.6795 H   0  0  0  0  0  0  0  0  0  0  0  0
    4.1907   -7.6911   14.6872 H   0  0  0  0  0  0  0  0  0  0  0  0
    3.2799   -9.9221   14.4175 H   0  0  0  0  0  0  0  0  0  0  0  0
    3.2141  -10.9511   12.2223 H   0  0  0  0  0  0  0  0  0  0  0  0
    4.0888   -9.7618   10.2979 H   0  0  0  0  0  0  0  0  0  0  0  0
    5.0837   -7.5683   10.5744 H   0  0  0  0  0  0  0  0  0  0  0  0
    2.8563   -5.8699   11.4343 H   0  0  0  0  0  0  0  0  0  0  0  0
    2.2631   -3.4954   10.7537 H   0  0  0  0  0  0  0  0  0  0  0  0
    5.8660   -3.3617   12.8235 H   0  0  0  0  0  0  0  0  0  0  0  0
    6.9647   -8.1353   13.9684 H   0  0  0  0  0  0  0  0  0  0  0  0
    8.9999   -7.2294   15.2300 H   0  0  0  0  0  0  0  0  0  0  0  0
    6.7398    2.1159   12.3465 H   0  0  0  0  0  0  0  0  0  0  0  0
    4.4596    1.3113   11.5042 H   0  0  0  0  0  0  0  0  0  0  0  0
    4.2036   -0.2210    9.3015 H   0  0  0  0  0  0  0  0  0  0  0  0
    2.4046    0.9156    8.1408 H   0  0  0  0  0  0  0  0  0  0  0  0
    0.8984   -1.8766    0.3717 H   0  0  0  0  0  0  0  0  0  0  0  0
    0.3824   -1.3396   -1.2514 H   0  0  0  0  0  0  0  0  0  0  0  0
  1  2  1  0  0  0  0
  1 68  1  0  0  0  0
  1 69  1  0  0  0  0
  1 70  1  0  0  0  0
  2  3  1  0  0  0  0
  2 67  1  0  0  0  0
  2 71  1  1  0  0  0
  3  4  1  0  0  0  0
  3 72  1  0  0  0  0
  3 73  1  0  0  0  0
  4  5  1  0  0  0  0
  4 74  1  0  0  0  0
  4 75  1  0  0  0  0
  5  6  1  0  0  0  0
  5 76  1  0  0  0  0
  5 77  1  0  0  0  0
  6  7  1  0  0  0  0
  6 67  1  0  0  0  0
  6 78  1  6  0  0  0
  7  8  1  0  0  0  0
  7  9  1  0  0  0  0
  7 10  1  0  0  0  0
  8 79  1  0  0  0  0
  8 80  1  0  0  0  0
  8 81  1  0  0  0  0
  9 82  1  0  0  0  0
  9 83  1  0  0  0  0
  9 84  1  0  0  0  0
 10 11  2  0  0  0  0
 10 12  1  0  0  0  0
 12 13  1  0  0  0  0
 12 85  1  0  0  0  0
 13 14  1  0  0  0  0
 13 86  1  0  0  0  0
 13 87  1  0  0  0  0
 14 15  1  0  0  0  0
 14 88  1  0  0  0  0
 14 89  1  0  0  0  0
 15 16  1  0  0  0  0
 15 90  1  0  0  0  0
 15 91  1  0  0  0  0
 16 17  1  0  0  0  0
 16 92  1  0  0  0  0
 17 18  2  0  0  0  0
 17 19  1  0  0  0  0
 19 20  1  0  0  0  0
 19 66  2  0  0  0  0
 20 21  2  0  0  0  0
 20 93  1  0  0  0  0
 21 22  1  0  0  0  0
 21 94  1  0  0  0  0
 22 23  1  0  0  0  0
 22 65  2  0  0  0  0
 23 24  1  0  0  0  0
 23 59  2  0  0  0  0
 24 25  2  0  0  0  0
 24 64  1  0  0  0  0
 25 26  1  0  0  0  0
 26 27  2  0  0  0  0
 26 63  1  0  0  0  0
 27 28  1  0  0  0  0
 27 34  1  0  0  0  0
 28 29  1  0  0  0  0
 28 33  2  0  0  0  0
 29 30  2  0  0  0  0
 29 95  1  0  0  0  0
 30 31  1  0  0  0  0
 30 96  1  0  0  0  0
 31 32  2  0  0  0  0
 31 97  1  0  0  0  0
 32 33  1  0  0  0  0
 32 98  1  0  0  0  0
 33 99  1  0  0  0  0
 34 35  2  0  0  0  0
 34 38  1  0  0  0  0
 35 36  1  0  0  0  0
 35100  1  0  0  0  0
 36 37  2  0  0  0  0
 36101  1  0  0  0  0
 37 38  1  0  0  0  0
 37 39  1  0  0  0  0
 38102  1  0  0  0  0
 39 40  1  0  0  0  0
 39 46  2  0  0  0  0
 40 41  1  0  0  0  0
 40 45  2  0  0  0  0
 41 42  2  0  0  0  0
 41103  1  0  0  0  0
 42 43  1  0  0  0  0
 42104  1  0  0  0  0
 43 44  2  0  0  0  0
 43105  1  0  0  0  0
 44 45  1  0  0  0  0
 44106  1  0  0  0  0
 45107  1  0  0  0  0
 46 47  1  0  0  0  0
 46 62  1  0  0  0  0
 47 48  2  0  0  0  0
 48 49  1  0  0  0  0
 48 61  1  0  0  0  0
 49 50  1  0  0  0  0
 49 56  2  0  0  0  0
 50 51  1  0  0  0  0
 50 55  2  0  0  0  0
 51 52  2  0  0  0  0
 51108  1  0  0  0  0
 52 53  1  0  0  0  0
 52109  1  0  0  0  0
 53 54  2  0  0  0  0
 53110  1  0  0  0  0
 54 55  1  0  0  0  0
 54111  1  0  0  0  0
 55112  1  0  0  0  0
 56 57  1  0  0  0  0
 56 60  1  0  0  0  0
 57 58  2  0  0  0  0
 57113  1  0  0  0  0
 58 59  1  0  0  0  0
 58114  1  0  0  0  0
 59 60  1  0  0  0  0
 60115  1  0  0  0  0
 61 62  2  0  0  0  0
 61116  1  0  0  0  0
 62117  1  0  0  0  0
 63 64  2  0  0  0  0
 63118  1  0  0  0  0
 64119  1  0  0  0  0
 65 66  1  0  0  0  0
 65120  1  0  0  0  0
 66121  1  0  0  0  0
 67122  1  0  0  0  0
 67123  1  0  0  0  0
M  END
$$$$
