2_2_8919
 OpenBabel04152301373D

128138  0  0  0  0  0  0  0  0999 V2000
   -0.8271    1.3422   -0.5886 C   0  0  0  0  0  0  0  0  0  0  0  0
   -0.1656    0.9233   -1.8715 C   0  0  0  0  0  0  0  0  0  0  0  0
   -0.4410   -0.1071   -2.4764 O   0  0  0  0  0  0  0  0  0  0  0  0
    0.7256    1.9041   -2.5023 C   0  0  0  0  0  0  0  0  0  0  0  0
    0.0920    2.7758   -3.4036 C   0  0  0  0  0  0  0  0  0  0  0  0
    0.8040    3.8140   -4.0016 C   0  0  0  0  0  0  0  0  0  0  0  0
    2.1565    3.9768   -3.7195 C   0  0  0  0  0  0  0  0  0  0  0  0
    2.7967    3.0940   -2.8483 C   0  0  0  0  0  0  0  0  0  0  0  0
    2.0839    2.0494   -2.2311 C   0  0  0  0  0  0  0  0  0  0  0  0
    3.0068    1.1020   -1.0548 S   0  0  0  0  0  0  0  0  0  0  0  0
    4.1563    0.5606   -1.7519 O   0  0  0  0  0  0  0  0  0  0  0  0
    3.1738    1.9890    0.0765 O   0  0  0  0  0  0  0  0  0  0  0  0
    2.0408   -0.2107   -0.5581 N   0  0  0  0  0  0  0  0  0  0  0  0
    2.1481   -0.5569    0.8733 C   0  0  0  0  0  0  0  0  0  0  0  0
    0.8833   -1.2855    1.2917 C   0  0  0  0  0  0  0  0  0  0  0  0
    0.3372   -2.2664    0.2487 C   0  0  0  0  0  0  0  0  0  0  0  0
   -0.1126   -3.5682    0.8922 C   0  0  0  0  0  0  0  0  0  0  0  0
   -1.2980   -3.9038    0.8911 O   0  0  0  0  0  0  0  0  0  0  0  0
    0.7800   -4.4058    1.4849 N   0  0  0  0  0  0  0  0  0  0  0  0
    2.2039   -4.2596    1.7282 C   0  0  0  0  0  0  0  0  0  0  0  0
    2.5103   -4.0328    3.2030 C   0  0  0  0  0  0  0  0  0  0  0  0
    2.0404   -5.1693    4.0973 C   0  0  0  0  0  0  0  0  0  0  0  0
    2.7377   -6.4130    3.8087 N   0  0  0  0  0  0  0  0  0  0  0  0
    3.6614   -7.0929    4.5607 C   0  0  0  0  0  0  0  0  0  0  0  0
    4.3354   -7.9795    4.0461 O   0  0  0  0  0  0  0  0  0  0  0  0
    3.8500   -6.7523    5.9858 C   0  0  0  0  0  0  0  0  0  0  0  0
    5.1413   -6.7466    6.5176 C   0  0  0  0  0  0  0  0  0  0  0  0
    5.3329   -6.4140    7.8593 C   0  0  0  0  0  0  0  0  0  0  0  0
    4.2426   -6.0330    8.6587 C   0  0  0  0  0  0  0  0  0  0  0  0
    4.4245   -5.6709   10.0849 C   0  0  0  0  0  0  0  0  0  0  0  0
    3.7704   -6.4981   11.1594 C   0  0  0  0  0  0  0  0  0  0  0  0
    3.7851   -6.3267   12.4570 N   0  0  0  0  0  0  0  0  0  0  0  0
    2.9745   -7.3280   12.9779 C   0  0  0  0  0  0  0  0  0  0  0  0
    2.7184   -7.6246   14.2738 C   0  0  0  0  0  0  0  0  0  0  0  0
    1.7910   -8.7762   14.5490 C   0  0  0  0  0  0  0  0  0  0  0  0
    2.1713  -10.1010   14.2781 C   0  0  0  0  0  0  0  0  0  0  0  0
    1.2869  -11.1551   14.5166 C   0  0  0  0  0  0  0  0  0  0  0  0
    0.0312  -10.9010   15.0662 C   0  0  0  0  0  0  0  0  0  0  0  0
   -0.3459   -9.5938   15.3702 C   0  0  0  0  0  0  0  0  0  0  0  0
    0.5247   -8.5351   15.1037 C   0  0  0  0  0  0  0  0  0  0  0  0
    3.2758   -6.9069   15.3874 C   0  0  0  0  0  0  0  0  0  0  0  0
    3.1398   -7.1699   16.7388 C   0  0  0  0  0  0  0  0  0  0  0  0
    3.8250   -6.1762   17.4462 C   0  0  0  0  0  0  0  0  0  0  0  0
    4.4311   -5.3274   16.5335 C   0  0  0  0  0  0  0  0  0  0  0  0
    4.0795   -5.7831   15.2748 N   0  0  0  0  0  0  0  0  0  0  0  0
    5.2701   -4.1860   16.7907 C   0  0  0  0  0  0  0  0  0  0  0  0
    5.5827   -3.8526   18.2215 C   0  0  0  0  0  0  0  0  0  0  0  0
    5.0324   -2.7212   18.8432 C   0  0  0  0  0  0  0  0  0  0  0  0
    5.3420   -2.4274   20.1723 C   0  0  0  0  0  0  0  0  0  0  0  0
    6.1710   -3.2798   20.9012 C   0  0  0  0  0  0  0  0  0  0  0  0
    6.6992   -4.4224   20.3024 C   0  0  0  0  0  0  0  0  0  0  0  0
    6.4157   -4.7026   18.9655 C   0  0  0  0  0  0  0  0  0  0  0  0
    5.8286   -3.3992   15.8387 C   0  0  0  0  0  0  0  0  0  0  0  0
    5.7296   -3.4942   14.4570 N   0  0  0  0  0  0  0  0  0  0  0  0
    6.4319   -2.4954   13.9791 C   0  0  0  0  0  0  0  0  0  0  0  0
    6.7042   -2.1289   12.5475 C   0  0  0  0  0  0  0  0  0  0  0  0
    7.5370   -0.9465   12.2074 C   0  0  0  0  0  0  0  0  0  0  0  0
    8.9191   -0.9553   12.4507 C   0  0  0  0  0  0  0  0  0  0  0  0
    9.6981    0.1643   12.1502 C   0  0  0  0  0  0  0  0  0  0  0  0
    9.1104    1.2897   11.5747 C   0  0  0  0  0  0  0  0  0  0  0  0
    7.7425    1.3021   11.3073 C   0  0  0  0  0  0  0  0  0  0  0  0
    6.9564    0.1947   11.6328 C   0  0  0  0  0  0  0  0  0  0  0  0
    6.2077   -2.9059   11.5673 C   0  0  0  0  0  0  0  0  0  0  0  0
    6.4087   -2.6939   10.1379 C   0  0  0  0  0  0  0  0  0  0  0  0
    5.7631   -3.6553    9.4584 C   0  0  0  0  0  0  0  0  0  0  0  0
    5.1305   -4.5715   10.4102 C   0  0  0  0  0  0  0  0  0  0  0  0
    5.4331   -4.0379   11.6367 N   0  0  0  0  0  0  0  0  0  0  0  0
    7.0373   -1.6365   15.0059 C   0  0  0  0  0  0  0  0  0  0  0  0
    6.6749   -2.2571   16.1198 C   0  0  0  0  0  0  0  0  0  0  0  0
    2.4378   -8.0666   11.8577 C   0  0  0  0  0  0  0  0  0  0  0  0
    2.9657   -7.6499   10.7175 C   0  0  0  0  0  0  0  0  0  0  0  0
    2.9539   -6.0372    8.1086 C   0  0  0  0  0  0  0  0  0  0  0  0
    2.7532   -6.4693    6.8041 C   0  0  0  0  0  0  0  0  0  0  0  0
    1.2095   -2.5411   -0.9825 C   0  0  0  0  0  0  0  0  0  0  0  0
    2.1537   -1.4227   -1.4172 C   0  0  0  0  0  0  0  0  0  0  0  0
   -1.4468    0.5468   -0.2306 H   0  0  0  0  0  0  0  0  0  0  0  0
   -1.4271    2.2106   -0.7637 H   0  0  0  0  0  0  0  0  0  0  0  0
   -0.0783    1.5674    0.1418 H   0  0  0  0  0  0  0  0  0  0  0  0
   -0.9078    2.6465   -3.6245 H   0  0  0  0  0  0  0  0  0  0  0  0
    0.3294    4.4600   -4.6516 H   0  0  0  0  0  0  0  0  0  0  0  0
    2.6857    4.7491   -4.1537 H   0  0  0  0  0  0  0  0  0  0  0  0
    3.8039    3.2086   -2.6547 H   0  0  0  0  0  0  0  0  0  0  0  0
    2.2583    0.3358    1.4528 H   0  0  0  0  0  0  0  0  0  0  0  0
    3.0009   -1.1826    1.0351 H   0  0  0  0  0  0  0  0  0  0  0  0
    0.1274   -0.5547    1.4904 H   0  0  0  0  0  0  0  0  0  0  0  0
    1.1397   -1.8687    2.1513 H   0  0  0  0  0  0  0  0  0  0  0  0
   -0.5025   -1.7389   -0.1532 H   0  0  0  0  0  0  0  0  0  0  0  0
    0.3957   -5.2547    1.8027 H   0  0  0  0  0  0  0  0  0  0  0  0
    2.5661   -3.4233    1.1675 H   0  0  0  0  0  0  0  0  0  0  0  0
    2.6857   -5.1660    1.4261 H   0  0  0  0  0  0  0  0  0  0  0  0
    2.0253   -3.1318    3.5159 H   0  0  0  0  0  0  0  0  0  0  0  0
    3.5742   -3.9729    3.2998 H   0  0  0  0  0  0  0  0  0  0  0  0
    0.9917   -5.3178    3.9452 H   0  0  0  0  0  0  0  0  0  0  0  0
    2.2498   -4.9003    5.1116 H   0  0  0  0  0  0  0  0  0  0  0  0
    2.5131   -6.8285    2.9449 H   0  0  0  0  0  0  0  0  0  0  0  0
    5.9490   -6.9869    5.9219 H   0  0  0  0  0  0  0  0  0  0  0  0
    6.2806   -6.4481    8.2663 H   0  0  0  0  0  0  0  0  0  0  0  0
    3.1114  -10.2968   13.9000 H   0  0  0  0  0  0  0  0  0  0  0  0
    1.5630  -12.1224   14.2859 H   0  0  0  0  0  0  0  0  0  0  0  0
   -0.6196  -11.6810   15.2481 H   0  0  0  0  0  0  0  0  0  0  0  0
   -1.2691   -9.4084   15.7925 H   0  0  0  0  0  0  0  0  0  0  0  0
    0.2346   -7.5678   15.3163 H   0  0  0  0  0  0  0  0  0  0  0  0
    2.6229   -7.9613   17.1530 H   0  0  0  0  0  0  0  0  0  0  0  0
    3.8713   -6.0899   18.4735 H   0  0  0  0  0  0  0  0  0  0  0  0
    4.3587   -5.3704   14.4257 H   0  0  0  0  0  0  0  0  0  0  0  0
    4.3960   -2.1036   18.3154 H   0  0  0  0  0  0  0  0  0  0  0  0
    4.9571   -1.5788   20.6159 H   0  0  0  0  0  0  0  0  0  0  0  0
    6.3938   -3.0643   21.8856 H   0  0  0  0  0  0  0  0  0  0  0  0
    7.2995   -5.0606   20.8477 H   0  0  0  0  0  0  0  0  0  0  0  0
    6.8213   -5.5407   18.5205 H   0  0  0  0  0  0  0  0  0  0  0  0
    9.3629   -1.7949   12.8545 H   0  0  0  0  0  0  0  0  0  0  0  0
   10.7097    0.1584   12.3544 H   0  0  0  0  0  0  0  0  0  0  0  0
    9.6882    2.1138   11.3466 H   0  0  0  0  0  0  0  0  0  0  0  0
    7.3103    2.1302   10.8685 H   0  0  0  0  0  0  0  0  0  0  0  0
    5.9410    0.2157   11.4495 H   0  0  0  0  0  0  0  0  0  0  0  0
    6.9584   -1.9286    9.7170 H   0  0  0  0  0  0  0  0  0  0  0  0
    5.7196   -3.7358    8.4305 H   0  0  0  0  0  0  0  0  0  0  0  0
    5.1245   -4.4289   12.4859 H   0  0  0  0  0  0  0  0  0  0  0  0
    7.5969   -0.7771   14.8905 H   0  0  0  0  0  0  0  0  0  0  0  0
    6.9595   -1.9639   17.0674 H   0  0  0  0  0  0  0  0  0  0  0  0
    1.7360   -8.8192   11.9362 H   0  0  0  0  0  0  0  0  0  0  0  0
    2.8449   -8.0324    9.7667 H   0  0  0  0  0  0  0  0  0  0  0  0
    2.1518   -5.7184    8.6743 H   0  0  0  0  0  0  0  0  0  0  0  0
    1.7944   -6.5813    6.4392 H   0  0  0  0  0  0  0  0  0  0  0  0
    0.5555   -2.7505   -1.8030 H   0  0  0  0  0  0  0  0  0  0  0  0
    1.8465   -3.3531   -0.7003 H   0  0  0  0  0  0  0  0  0  0  0  0
    3.1593   -1.7849   -1.3682 H   0  0  0  0  0  0  0  0  0  0  0  0
    1.8839   -1.1399   -2.4133 H   0  0  0  0  0  0  0  0  0  0  0  0
  1  2  1  0  0  0  0
  1 76  1  0  0  0  0
  1 77  1  0  0  0  0
  1 78  1  0  0  0  0
  2  3  2  0  0  0  0
  2  4  1  0  0  0  0
  4  5  1  0  0  0  0
  4  9  2  0  0  0  0
  5  6  2  0  0  0  0
  5 79  1  0  0  0  0
  6  7  1  0  0  0  0
  6 80  1  0  0  0  0
  7  8  2  0  0  0  0
  7 81  1  0  0  0  0
  8  9  1  0  0  0  0
  8 82  1  0  0  0  0
  9 10  1  0  0  0  0
 10 11  2  0  0  0  0
 10 12  2  0  0  0  0
 10 13  1  0  0  0  0
 13 14  1  0  0  0  0
 13 75  1  0  0  0  0
 14 15  1  0  0  0  0
 14 83  1  0  0  0  0
 14 84  1  0  0  0  0
 15 16  1  0  0  0  0
 15 85  1  0  0  0  0
 15 86  1  0  0  0  0
 16 17  1  0  0  0  0
 16 74  1  0  0  0  0
 16 87  1  0  0  0  0
 17 18  2  0  0  0  0
 17 19  1  0  0  0  0
 19 20  1  0  0  0  0
 19 88  1  0  0  0  0
 20 21  1  0  0  0  0
 20 89  1  0  0  0  0
 20 90  1  0  0  0  0
 21 22  1  0  0  0  0
 21 91  1  0  0  0  0
 21 92  1  0  0  0  0
 22 23  1  0  0  0  0
 22 93  1  0  0  0  0
 22 94  1  0  0  0  0
 23 24  1  0  0  0  0
 23 95  1  0  0  0  0
 24 25  2  0  0  0  0
 24 26  1  0  0  0  0
 26 27  1  0  0  0  0
 26 73  2  0  0  0  0
 27 28  2  0  0  0  0
 27 96  1  0  0  0  0
 28 29  1  0  0  0  0
 28 97  1  0  0  0  0
 29 30  1  0  0  0  0
 29 72  2  0  0  0  0
 30 31  1  0  0  0  0
 30 66  2  0  0  0  0
 31 32  2  0  0  0  0
 31 71  1  0  0  0  0
 32 33  1  0  0  0  0
 33 34  2  0  0  0  0
 33 70  1  0  0  0  0
 34 35  1  0  0  0  0
 34 41  1  0  0  0  0
 35 36  1  0  0  0  0
 35 40  2  0  0  0  0
 36 37  2  0  0  0  0
 36 98  1  0  0  0  0
 37 38  1  0  0  0  0
 37 99  1  0  0  0  0
 38 39  2  0  0  0  0
 38100  1  0  0  0  0
 39 40  1  0  0  0  0
 39101  1  0  0  0  0
 40102  1  0  0  0  0
 41 42  2  0  0  0  0
 41 45  1  0  0  0  0
 42 43  1  0  0  0  0
 42103  1  0  0  0  0
 43 44  2  0  0  0  0
 43104  1  0  0  0  0
 44 45  1  0  0  0  0
 44 46  1  0  0  0  0
 45105  1  0  0  0  0
 46 47  1  0  0  0  0
 46 53  2  0  0  0  0
 47 48  1  0  0  0  0
 47 52  2  0  0  0  0
 48 49  2  0  0  0  0
 48106  1  0  0  0  0
 49 50  1  0  0  0  0
 49107  1  0  0  0  0
 50 51  2  0  0  0  0
 50108  1  0  0  0  0
 51 52  1  0  0  0  0
 51109  1  0  0  0  0
 52110  1  0  0  0  0
 53 54  1  0  0  0  0
 53 69  1  0  0  0  0
 54 55  2  0  0  0  0
 55 56  1  0  0  0  0
 55 68  1  0  0  0  0
 56 57  1  0  0  0  0
 56 63  2  0  0  0  0
 57 58  1  0  0  0  0
 57 62  2  0  0  0  0
 58 59  2  0  0  0  0
 58111  1  0  0  0  0
 59 60  1  0  0  0  0
 59112  1  0  0  0  0
 60 61  2  0  0  0  0
 60113  1  0  0  0  0
 61 62  1  0  0  0  0
 61114  1  0  0  0  0
 62115  1  0  0  0  0
 63 64  1  0  0  0  0
 63 67  1  0  0  0  0
 64 65  2  0  0  0  0
 64116  1  0  0  0  0
 65 66  1  0  0  0  0
 65117  1  0  0  0  0
 66 67  1  0  0  0  0
 67118  1  0  0  0  0
 68 69  2  0  0  0  0
 68119  1  0  0  0  0
 69120  1  0  0  0  0
 70 71  2  0  0  0  0
 70121  1  0  0  0  0
 71122  1  0  0  0  0
 72 73  1  0  0  0  0
 72123  1  0  0  0  0
 73124  1  0  0  0  0
 74 75  1  0  0  0  0
 74125  1  0  0  0  0
 74126  1  0  0  0  0
 75127  1  0  0  0  0
 75128  1  0  0  0  0
M  END
$$$$
