2_2_7616
 OpenBabel04152301373D

131141  0  0  1  0  0  0  0  0999 V2000
    0.7216   -0.3890    0.2652 O   0  0  0  0  0  0  0  0  0  0  0  0
    1.8226   -0.1677   -0.2281 C   0  0  0  0  0  0  0  0  0  0  0  0
    2.6873    0.9878    0.2266 C   0  0  0  0  0  0  0  0  0  0  0  0
    3.4180    0.6340    1.5199 C   0  0  0  0  0  0  0  0  0  0  0  0
    4.4601   -0.4770    1.3708 C   0  0  0  0  0  0  0  0  0  0  0  0
    5.6109   -0.0364    0.5972 N   0  0  0  0  0  0  0  0  0  0  0  0
    6.8050    0.3539    1.1164 C   0  0  0  0  0  0  0  0  0  0  0  0
    7.4283    1.2606    0.5717 O   0  0  0  0  0  0  0  0  0  0  0  0
    7.2307   -0.2652    2.2523 N   0  0  0  0  0  0  0  0  0  0  0  0
    7.2339   -1.7032    2.4662 C   0  0  0  0  0  0  0  0  0  0  0  0
    7.6299   -1.8443    3.9207 C   0  0  0  0  0  0  0  0  0  0  0  0
    8.5964   -0.6746    4.1444 C   0  0  1  0  0  0  0  0  0  0  0  0
   10.0386   -1.1538    4.0824 C   0  0  0  0  0  0  0  0  0  0  0  0
   10.5461   -1.6261    5.1086 O   0  0  0  0  0  0  0  0  0  0  0  0
   10.8058   -1.2207    2.9717 N   0  0  0  0  0  0  0  0  0  0  0  0
   10.6805   -0.6709    1.6333 C   0  0  0  0  0  0  0  0  0  0  0  0
   11.3114    0.7159    1.5284 C   0  0  0  0  0  0  0  0  0  0  0  0
   12.8285    0.7166    1.6797 C   0  0  0  0  0  0  0  0  0  0  0  0
   13.5009    0.1355    0.5308 N   0  0  0  0  0  0  0  0  0  0  0  0
   14.4593    0.6761   -0.2916 C   0  0  0  0  0  0  0  0  0  0  0  0
   14.7671    0.0936   -1.3268 O   0  0  0  0  0  0  0  0  0  0  0  0
   15.1201    1.9557    0.0527 C   0  0  0  0  0  0  0  0  0  0  0  0
   15.3737    2.8737   -0.9714 C   0  0  0  0  0  0  0  0  0  0  0  0
   16.0231    4.0771   -0.6856 C   0  0  0  0  0  0  0  0  0  0  0  0
   16.3983    4.3823    0.6314 C   0  0  0  0  0  0  0  0  0  0  0  0
   17.1056    5.6451    0.9541 C   0  0  0  0  0  0  0  0  0  0  0  0
   18.5333    5.6076    1.4240 C   0  0  0  0  0  0  0  0  0  0  0  0
   19.3002    6.5927    1.8185 N   0  0  0  0  0  0  0  0  0  0  0  0
   20.4985    6.0052    2.2031 C   0  0  0  0  0  0  0  0  0  0  0  0
   21.6299    6.5991    2.6520 C   0  0  0  0  0  0  0  0  0  0  0  0
   22.7725    5.6969    3.0210 C   0  0  0  0  0  0  0  0  0  0  0  0
   23.5216    5.0329    2.0364 C   0  0  0  0  0  0  0  0  0  0  0  0
   24.5506    4.1618    2.3997 C   0  0  0  0  0  0  0  0  0  0  0  0
   24.8636    3.9743    3.7455 C   0  0  0  0  0  0  0  0  0  0  0  0
   24.1484    4.6544    4.7304 C   0  0  0  0  0  0  0  0  0  0  0  0
   23.1027    5.5068    4.3713 C   0  0  0  0  0  0  0  0  0  0  0  0
   21.7960    8.0188    2.8037 C   0  0  0  0  0  0  0  0  0  0  0  0
   22.9250    8.7207    3.1890 C   0  0  0  0  0  0  0  0  0  0  0  0
   22.6034   10.0830    3.2174 C   0  0  0  0  0  0  0  0  0  0  0  0
   21.2850   10.2286    2.8166 C   0  0  0  0  0  0  0  0  0  0  0  0
   20.8010    8.9550    2.5718 N   0  0  0  0  0  0  0  0  0  0  0  0
   20.5215   11.4393    2.6665 C   0  0  0  0  0  0  0  0  0  0  0  0
   21.2094   12.7426    2.9466 C   0  0  0  0  0  0  0  0  0  0  0  0
   20.9655   13.4479    4.1346 C   0  0  0  0  0  0  0  0  0  0  0  0
   21.6238   14.6533    4.3847 C   0  0  0  0  0  0  0  0  0  0  0  0
   22.5471   15.1492    3.4643 C   0  0  0  0  0  0  0  0  0  0  0  0
   22.8105   14.4458    2.2896 C   0  0  0  0  0  0  0  0  0  0  0  0
   22.1401   13.2504    2.0275 C   0  0  0  0  0  0  0  0  0  0  0  0
   19.2275   11.4987    2.2689 C   0  0  0  0  0  0  0  0  0  0  0  0
   18.3716   10.4591    1.9319 N   0  0  0  0  0  0  0  0  0  0  0  0
   17.2286   11.0229    1.6263 C   0  0  0  0  0  0  0  0  0  0  0  0
   15.9521   10.3796    1.1684 C   0  0  0  0  0  0  0  0  0  0  0  0
   14.7451   11.1951    0.8890 C   0  0  0  0  0  0  0  0  0  0  0  0
   14.6548   11.9436   -0.2938 C   0  0  0  0  0  0  0  0  0  0  0  0
   13.5104   12.6955   -0.5669 C   0  0  0  0  0  0  0  0  0  0  0  0
   12.4410   12.6898    0.3276 C   0  0  0  0  0  0  0  0  0  0  0  0
   12.5166   11.9413    1.5014 C   0  0  0  0  0  0  0  0  0  0  0  0
   13.6670   11.2032    1.7867 C   0  0  0  0  0  0  0  0  0  0  0  0
   15.9089    9.0473    0.9843 C   0  0  0  0  0  0  0  0  0  0  0  0
   14.7428    8.2952    0.5306 C   0  0  0  0  0  0  0  0  0  0  0  0
   15.0538    6.9893    0.4855 C   0  0  0  0  0  0  0  0  0  0  0  0
   16.4515    6.8191    0.8847 C   0  0  0  0  0  0  0  0  0  0  0  0
   16.8789    8.0928    1.1621 N   0  0  0  0  0  0  0  0  0  0  0  0
   17.2238   12.4874    1.7508 C   0  0  0  0  0  0  0  0  0  0  0  0
   18.4754   12.7282    2.1180 C   0  0  0  0  0  0  0  0  0  0  0  0
   20.3465    4.5772    2.0259 C   0  0  0  0  0  0  0  0  0  0  0  0
   19.1737    4.2842    1.4844 C   0  0  0  0  0  0  0  0  0  0  0  0
   16.1375    3.4557    1.6519 C   0  0  0  0  0  0  0  0  0  0  0  0
   15.5468    2.2290    1.3553 C   0  0  0  0  0  0  0  0  0  0  0  0
    8.0975    0.4079    3.2045 C   0  0  0  0  0  0  0  0  0  0  0  0
    2.4243   -0.9713   -1.1748 N   0  0  0  0  0  0  0  0  0  0  0  0
    1.8281   -2.1834   -1.6330 C   0  0  0  0  0  0  0  0  0  0  0  0
    2.6632   -3.2327   -2.3144 C   0  0  0  0  0  0  0  0  0  0  0  0
    2.1179   -3.4868   -0.9404 C   0  0  0  0  0  0  0  0  0  0  0  0
    2.0693    1.8449    0.3948 H   0  0  0  0  0  0  0  0  0  0  0  0
    3.4111    1.1975   -0.5330 H   0  0  0  0  0  0  0  0  0  0  0  0
    2.6918    0.3179    2.2394 H   0  0  0  0  0  0  0  0  0  0  0  0
    3.9481    1.5128    1.8226 H   0  0  0  0  0  0  0  0  0  0  0  0
    4.0087   -1.3114    0.8759 H   0  0  0  0  0  0  0  0  0  0  0  0
    4.8000   -0.7483    2.3484 H   0  0  0  0  0  0  0  0  0  0  0  0
    5.5171   -0.0196   -0.3827 H   0  0  0  0  0  0  0  0  0  0  0  0
    7.9460   -2.1831    1.8278 H   0  0  0  0  0  0  0  0  0  0  0  0
    6.2915   -2.1591    2.2451 H   0  0  0  0  0  0  0  0  0  0  0  0
    8.1165   -2.7811    4.0953 H   0  0  0  0  0  0  0  0  0  0  0  0
    6.7910   -1.8242    4.5846 H   0  0  0  0  0  0  0  0  0  0  0  0
    8.6093   -0.2336    5.1192 H   0  0  0  0  0  0  0  0  0  0  0  0
   11.6229   -1.7556    3.0963 H   0  0  0  0  0  0  0  0  0  0  0  0
    9.6424   -0.5988    1.3843 H   0  0  0  0  0  0  0  0  0  0  0  0
   11.1940   -1.3219    0.9570 H   0  0  0  0  0  0  0  0  0  0  0  0
   10.8958    1.3342    2.2964 H   0  0  0  0  0  0  0  0  0  0  0  0
   11.0967    1.0816    0.5460 H   0  0  0  0  0  0  0  0  0  0  0  0
   13.0870    0.1517    2.5509 H   0  0  0  0  0  0  0  0  0  0  0  0
   13.1471    1.7347    1.7631 H   0  0  0  0  0  0  0  0  0  0  0  0
   13.2289   -0.7841    0.3080 H   0  0  0  0  0  0  0  0  0  0  0  0
   15.0811    2.6621   -1.9382 H   0  0  0  0  0  0  0  0  0  0  0  0
   16.2276    4.7441   -1.4461 H   0  0  0  0  0  0  0  0  0  0  0  0
   23.3104    5.1896    1.0385 H   0  0  0  0  0  0  0  0  0  0  0  0
   25.0797    3.6565    1.6719 H   0  0  0  0  0  0  0  0  0  0  0  0
   25.6254    3.3315    4.0128 H   0  0  0  0  0  0  0  0  0  0  0  0
   24.3921    4.5276    5.7252 H   0  0  0  0  0  0  0  0  0  0  0  0
   22.5691    6.0003    5.1039 H   0  0  0  0  0  0  0  0  0  0  0  0
   23.8445    8.3109    3.4160 H   0  0  0  0  0  0  0  0  0  0  0  0
   23.2397   10.8483    3.4903 H   0  0  0  0  0  0  0  0  0  0  0  0
   19.8855    8.7454    2.2767 H   0  0  0  0  0  0  0  0  0  0  0  0
   20.2969   13.0742    4.8262 H   0  0  0  0  0  0  0  0  0  0  0  0
   21.4271   15.1779    5.2514 H   0  0  0  0  0  0  0  0  0  0  0  0
   23.0361   16.0382    3.6531 H   0  0  0  0  0  0  0  0  0  0  0  0
   23.5010   14.8091    1.6142 H   0  0  0  0  0  0  0  0  0  0  0  0
   22.3299   12.7369    1.1527 H   0  0  0  0  0  0  0  0  0  0  0  0
   15.4382   11.9385   -0.9656 H   0  0  0  0  0  0  0  0  0  0  0  0
   13.4561   13.2560   -1.4317 H   0  0  0  0  0  0  0  0  0  0  0  0
   11.5928   13.2401    0.1207 H   0  0  0  0  0  0  0  0  0  0  0  0
   11.7219   11.9328    2.1597 H   0  0  0  0  0  0  0  0  0  0  0  0
   13.7245   10.6607    2.6627 H   0  0  0  0  0  0  0  0  0  0  0  0
   13.8268    8.7016    0.2841 H   0  0  0  0  0  0  0  0  0  0  0  0
   14.4112    6.2290    0.2134 H   0  0  0  0  0  0  0  0  0  0  0  0
   17.7936    8.3021    1.4601 H   0  0  0  0  0  0  0  0  0  0  0  0
   16.4507   13.1527    1.5939 H   0  0  0  0  0  0  0  0  0  0  0  0
   18.8641   13.6710    2.2761 H   0  0  0  0  0  0  0  0  0  0  0  0
   21.0591    3.8780    2.2874 H   0  0  0  0  0  0  0  0  0  0  0  0
   18.8057    3.3681    1.1838 H   0  0  0  0  0  0  0  0  0  0  0  0
   16.3845    3.6838    2.6276 H   0  0  0  0  0  0  0  0  0  0  0  0
   15.4244    1.5223    2.0974 H   0  0  0  0  0  0  0  0  0  0  0  0
    7.5500    1.1498    3.7474 H   0  0  0  0  0  0  0  0  0  0  0  0
    8.9065    0.9092    2.7155 H   0  0  0  0  0  0  0  0  0  0  0  0
    3.2943   -0.6989   -1.5465 H   0  0  0  0  0  0  0  0  0  0  0  0
    0.9410   -1.6399   -1.8831 H   0  0  0  0  0  0  0  0  0  0  0  0
    3.7124   -3.0746   -2.4525 H   0  0  0  0  0  0  0  0  0  0  0  0
    2.6164   -3.7443   -3.2530 H   0  0  0  0  0  0  0  0  0  0  0  0
    1.3355   -4.2030   -0.7996 H   0  0  0  0  0  0  0  0  0  0  0  0
    2.5420   -3.7643    0.0020 H   0  0  0  0  0  0  0  0  0  0  0  0
  1  2  2  0  0  0  0
  2  3  1  0  0  0  0
  2 71  1  0  0  0  0
  3  4  1  0  0  0  0
  3 75  1  0  0  0  0
  3 76  1  0  0  0  0
  4  5  1  0  0  0  0
  4 77  1  0  0  0  0
  4 78  1  0  0  0  0
  5  6  1  0  0  0  0
  5 79  1  0  0  0  0
  5 80  1  0  0  0  0
  6  7  1  0  0  0  0
  6 81  1  0  0  0  0
  7  8  2  0  0  0  0
  7  9  1  0  0  0  0
  9 10  1  0  0  0  0
  9 70  1  0  0  0  0
 10 11  1  0  0  0  0
 10 82  1  0  0  0  0
 10 83  1  0  0  0  0
 11 12  1  0  0  0  0
 11 84  1  0  0  0  0
 11 85  1  0  0  0  0
 12 70  1  0  0  0  0
 12 13  1  0  0  0  0
 12 86  1  1  0  0  0
 13 14  2  0  0  0  0
 13 15  1  0  0  0  0
 15 16  1  0  0  0  0
 15 87  1  0  0  0  0
 16 17  1  0  0  0  0
 16 88  1  0  0  0  0
 16 89  1  0  0  0  0
 17 18  1  0  0  0  0
 17 90  1  0  0  0  0
 17 91  1  0  0  0  0
 18 19  1  0  0  0  0
 18 92  1  0  0  0  0
 18 93  1  0  0  0  0
 19 20  1  0  0  0  0
 19 94  1  0  0  0  0
 20 21  2  0  0  0  0
 20 22  1  0  0  0  0
 22 23  1  0  0  0  0
 22 69  2  0  0  0  0
 23 24  2  0  0  0  0
 23 95  1  0  0  0  0
 24 25  1  0  0  0  0
 24 96  1  0  0  0  0
 25 26  1  0  0  0  0
 25 68  2  0  0  0  0
 26 27  1  0  0  0  0
 26 62  2  0  0  0  0
 27 28  2  0  0  0  0
 27 67  1  0  0  0  0
 28 29  1  0  0  0  0
 29 30  2  0  0  0  0
 29 66  1  0  0  0  0
 30 31  1  0  0  0  0
 30 37  1  0  0  0  0
 31 32  1  0  0  0  0
 31 36  2  0  0  0  0
 32 33  2  0  0  0  0
 32 97  1  0  0  0  0
 33 34  1  0  0  0  0
 33 98  1  0  0  0  0
 34 35  2  0  0  0  0
 34 99  1  0  0  0  0
 35 36  1  0  0  0  0
 35100  1  0  0  0  0
 36101  1  0  0  0  0
 37 38  2  0  0  0  0
 37 41  1  0  0  0  0
 38 39  1  0  0  0  0
 38102  1  0  0  0  0
 39 40  2  0  0  0  0
 39103  1  0  0  0  0
 40 41  1  0  0  0  0
 40 42  1  0  0  0  0
 41104  1  0  0  0  0
 42 43  1  0  0  0  0
 42 49  2  0  0  0  0
 43 44  1  0  0  0  0
 43 48  2  0  0  0  0
 44 45  2  0  0  0  0
 44105  1  0  0  0  0
 45 46  1  0  0  0  0
 45106  1  0  0  0  0
 46 47  2  0  0  0  0
 46107  1  0  0  0  0
 47 48  1  0  0  0  0
 47108  1  0  0  0  0
 48109  1  0  0  0  0
 49 50  1  0  0  0  0
 49 65  1  0  0  0  0
 50 51  2  0  0  0  0
 51 52  1  0  0  0  0
 51 64  1  0  0  0  0
 52 53  1  0  0  0  0
 52 59  2  0  0  0  0
 53 54  1  0  0  0  0
 53 58  2  0  0  0  0
 54 55  2  0  0  0  0
 54110  1  0  0  0  0
 55 56  1  0  0  0  0
 55111  1  0  0  0  0
 56 57  2  0  0  0  0
 56112  1  0  0  0  0
 57 58  1  0  0  0  0
 57113  1  0  0  0  0
 58114  1  0  0  0  0
 59 60  1  0  0  0  0
 59 63  1  0  0  0  0
 60 61  2  0  0  0  0
 60115  1  0  0  0  0
 61 62  1  0  0  0  0
 61116  1  0  0  0  0
 62 63  1  0  0  0  0
 63117  1  0  0  0  0
 64 65  2  0  0  0  0
 64118  1  0  0  0  0
 65119  1  0  0  0  0
 66 67  2  0  0  0  0
 66120  1  0  0  0  0
 67121  1  0  0  0  0
 68 69  1  0  0  0  0
 68122  1  0  0  0  0
 69123  1  0  0  0  0
 70124  1  0  0  0  0
 70125  1  0  0  0  0
 71 72  1  0  0  0  0
 71126  1  0  0  0  0
 72 73  1  0  0  0  0
 72 74  1  0  0  0  0
 72127  1  0  0  0  0
 73 74  1  0  0  0  0
 73128  1  0  0  0  0
 73129  1  0  0  0  0
 74130  1  0  0  0  0
 74131  1  0  0  0  0
M  END
$$$$
