2_2_6370
 OpenBabel04152301373D

126136  0  0  1  0  0  0  0  0999 V2000
    2.1070    0.6786   -0.0059 C   0  0  0  0  0  0  0  0  0  0  0  0
    0.7240    0.1544    0.0666 C   0  0  0  0  0  0  0  0  0  0  0  0
   -0.5071    1.3527    0.0671 S   0  0  0  0  0  0  0  0  0  0  0  0
   -1.7758    0.2046    0.1329 C   0  0  0  0  0  0  0  0  0  0  0  0
   -3.1342    0.7193    0.0425 C   0  0  0  0  0  0  0  0  0  0  0  0
   -3.4258    1.9079    0.2034 O   0  0  0  0  0  0  0  0  0  0  0  0
   -4.1916   -0.0936   -0.2742 N   0  0  0  0  0  0  0  0  0  0  0  0
   -4.2824   -1.5198   -0.5001 C   0  0  0  0  0  0  0  0  0  0  0  0
   -4.6765   -2.2431    0.7848 C   0  0  0  0  0  0  0  0  0  0  0  0
   -6.1150   -1.9477    1.2030 C   0  0  0  0  0  0  0  0  0  0  0  0
   -7.0689   -2.3910    0.1946 N   0  0  0  0  0  0  0  0  0  0  0  0
   -8.0792   -3.3096    0.2796 C   0  0  0  0  0  0  0  0  0  0  0  0
   -8.5805   -3.7571   -0.7474 O   0  0  0  0  0  0  0  0  0  0  0  0
   -8.5786   -3.7477    1.5965 C   0  0  0  0  0  0  0  0  0  0  0  0
   -8.9839   -5.0748    1.7549 C   0  0  0  0  0  0  0  0  0  0  0  0
   -9.5001   -5.4954    2.9794 C   0  0  0  0  0  0  0  0  0  0  0  0
   -9.5652   -4.6061    4.0646 C   0  0  0  0  0  0  0  0  0  0  0  0
  -10.1022   -5.0423    5.3748 C   0  0  0  0  0  0  0  0  0  0  0  0
  -11.3535   -4.4145    5.9255 C   0  0  0  0  0  0  0  0  0  0  0  0
  -11.9658   -4.6519    7.0579 N   0  0  0  0  0  0  0  0  0  0  0  0
  -13.0412   -3.7729    7.0964 C   0  0  0  0  0  0  0  0  0  0  0  0
  -14.0189   -3.6699    8.0277 C   0  0  0  0  0  0  0  0  0  0  0  0
  -15.0802   -2.6255    7.8072 C   0  0  0  0  0  0  0  0  0  0  0  0
  -16.0085   -2.7361    6.7585 C   0  0  0  0  0  0  0  0  0  0  0  0
  -16.9775   -1.7495    6.5614 C   0  0  0  0  0  0  0  0  0  0  0  0
  -17.0572   -0.6659    7.4346 C   0  0  0  0  0  0  0  0  0  0  0  0
  -16.1626   -0.5604    8.4984 C   0  0  0  0  0  0  0  0  0  0  0  0
  -15.1716   -1.5278    8.6770 C   0  0  0  0  0  0  0  0  0  0  0  0
  -14.0925   -4.4886    9.2083 C   0  0  0  0  0  0  0  0  0  0  0  0
  -15.0665   -4.5001   10.1910 C   0  0  0  0  0  0  0  0  0  0  0  0
  -14.6823   -5.4176   11.1742 C   0  0  0  0  0  0  0  0  0  0  0  0
  -13.5063   -6.0286   10.7684 C   0  0  0  0  0  0  0  0  0  0  0  0
  -13.1497   -5.4404    9.5667 N   0  0  0  0  0  0  0  0  0  0  0  0
  -12.7657   -7.0737   11.4277 C   0  0  0  0  0  0  0  0  0  0  0  0
  -13.3307   -7.6427   12.7001 C   0  0  0  0  0  0  0  0  0  0  0  0
  -12.7028   -7.4406   13.9391 C   0  0  0  0  0  0  0  0  0  0  0  0
  -13.2370   -8.0023   15.1006 C   0  0  0  0  0  0  0  0  0  0  0  0
  -14.4258   -8.7292   15.0423 C   0  0  0  0  0  0  0  0  0  0  0  0
  -15.0784   -8.9046   13.8236 C   0  0  0  0  0  0  0  0  0  0  0  0
  -14.5272   -8.3759   12.6563 C   0  0  0  0  0  0  0  0  0  0  0  0
  -11.6127   -7.6190   10.9674 C   0  0  0  0  0  0  0  0  0  0  0  0
  -10.9030   -7.3198    9.8118 N   0  0  0  0  0  0  0  0  0  0  0  0
   -9.8541   -8.1069    9.8226 C   0  0  0  0  0  0  0  0  0  0  0  0
   -8.7638   -8.2495    8.7981 C   0  0  0  0  0  0  0  0  0  0  0  0
   -7.6578   -9.2242    8.9898 C   0  0  0  0  0  0  0  0  0  0  0  0
   -7.9080  -10.6047    8.9530 C   0  0  0  0  0  0  0  0  0  0  0  0
   -6.8747  -11.5183    9.1738 C   0  0  0  0  0  0  0  0  0  0  0  0
   -5.5758  -11.0634    9.3943 C   0  0  0  0  0  0  0  0  0  0  0  0
   -5.3086   -9.6957    9.4037 C   0  0  0  0  0  0  0  0  0  0  0  0
   -6.3458   -8.7798    9.2170 C   0  0  0  0  0  0  0  0  0  0  0  0
   -8.8120   -7.4932    7.6863 C   0  0  0  0  0  0  0  0  0  0  0  0
   -7.8426   -7.5307    6.5971 C   0  0  0  0  0  0  0  0  0  0  0  0
   -8.1928   -6.6257    5.6699 C   0  0  0  0  0  0  0  0  0  0  0  0
   -9.4391   -5.9758    6.0825 C   0  0  0  0  0  0  0  0  0  0  0  0
   -9.7238   -6.5426    7.2977 N   0  0  0  0  0  0  0  0  0  0  0  0
   -9.7614   -8.9726   11.0055 C   0  0  0  0  0  0  0  0  0  0  0  0
  -10.8834   -8.6729   11.6434 C   0  0  0  0  0  0  0  0  0  0  0  0
  -12.9648   -2.9563    5.9060 C   0  0  0  0  0  0  0  0  0  0  0  0
  -11.9871   -3.3636    5.1113 C   0  0  0  0  0  0  0  0  0  0  0  0
   -9.1427   -3.2808    3.8957 C   0  0  0  0  0  0  0  0  0  0  0  0
   -8.7130   -2.8394    2.6504 C   0  0  0  0  0  0  0  0  0  0  0  0
   -1.2486   -1.0617    0.2780 C   0  0  0  0  0  0  0  0  0  0  0  0
    0.1823   -1.1151    0.1390 C   0  0  0  0  0  0  0  0  0  0  0  0
    0.9505   -2.6821    0.0583 S   0  0  0  0  0  0  0  0  0  0  0  0
    0.5298   -3.3022    1.2987 O   0  0  0  0  0  0  0  0  0  0  0  0
    0.4957   -3.1813   -1.2216 O   0  0  0  0  0  0  0  0  0  0  0  0
    2.6054   -2.6453    0.0377 N   0  0  0  0  0  0  0  0  0  0  0  0
    3.3684   -2.4001   -1.1840 C   0  0  0  0  0  0  0  0  0  0  0  0
    4.7850   -2.0542   -0.7038 C   0  0  1  0  0  0  0  0  0  0  0  0
    5.3778   -0.8891   -1.4941 C   0  0  0  0  0  0  0  0  0  0  0  0
    4.6481   -1.7285    0.7956 C   0  0  2  0  0  0  0  0  0  0  0  0
    5.8745   -2.1259    1.6052 C   0  0  0  0  0  0  0  0  0  0  0  0
    3.3944   -2.4727    1.2513 C   0  0  0  0  0  0  0  0  0  0  0  0
    2.0815    1.7474   -0.0492 H   0  0  0  0  0  0  0  0  0  0  0  0
    2.5874    0.2975   -0.8828 H   0  0  0  0  0  0  0  0  0  0  0  0
    2.6515    0.3696    0.8619 H   0  0  0  0  0  0  0  0  0  0  0  0
   -5.0490    0.3816   -0.3648 H   0  0  0  0  0  0  0  0  0  0  0  0
   -3.3327   -1.8845   -0.8318 H   0  0  0  0  0  0  0  0  0  0  0  0
   -5.0299   -1.7045   -1.2431 H   0  0  0  0  0  0  0  0  0  0  0  0
   -4.0197   -1.9310    1.5698 H   0  0  0  0  0  0  0  0  0  0  0  0
   -4.5996   -3.2948    0.6032 H   0  0  0  0  0  0  0  0  0  0  0  0
   -6.2255   -0.8930    1.3455 H   0  0  0  0  0  0  0  0  0  0  0  0
   -6.3156   -2.4791    2.1098 H   0  0  0  0  0  0  0  0  0  0  0  0
   -6.9710   -1.9621   -0.6862 H   0  0  0  0  0  0  0  0  0  0  0  0
   -8.9017   -5.7399    0.9701 H   0  0  0  0  0  0  0  0  0  0  0  0
   -9.8361   -6.4650    3.0892 H   0  0  0  0  0  0  0  0  0  0  0  0
  -15.9742   -3.5529    6.1287 H   0  0  0  0  0  0  0  0  0  0  0  0
  -17.6346   -1.8229    5.7690 H   0  0  0  0  0  0  0  0  0  0  0  0
  -17.7787    0.0584    7.2935 H   0  0  0  0  0  0  0  0  0  0  0  0
  -16.2327    0.2332    9.1544 H   0  0  0  0  0  0  0  0  0  0  0  0
  -14.5005   -1.4348    9.4554 H   0  0  0  0  0  0  0  0  0  0  0  0
  -15.9271   -3.9305   10.1974 H   0  0  0  0  0  0  0  0  0  0  0  0
  -15.1887   -5.6075   12.0531 H   0  0  0  0  0  0  0  0  0  0  0  0
  -12.3460   -5.6646    9.0442 H   0  0  0  0  0  0  0  0  0  0  0  0
  -11.8419   -6.8740   13.9919 H   0  0  0  0  0  0  0  0  0  0  0  0
  -12.7516   -7.8794   16.0030 H   0  0  0  0  0  0  0  0  0  0  0  0
  -14.8227   -9.1377   15.9029 H   0  0  0  0  0  0  0  0  0  0  0  0
  -15.9686   -9.4251   13.7847 H   0  0  0  0  0  0  0  0  0  0  0  0
  -15.0030   -8.5250   11.7528 H   0  0  0  0  0  0  0  0  0  0  0  0
   -8.8624  -10.9473    8.7614 H   0  0  0  0  0  0  0  0  0  0  0  0
   -7.0732  -12.5310    9.1737 H   0  0  0  0  0  0  0  0  0  0  0  0
   -4.8119  -11.7395    9.5506 H   0  0  0  0  0  0  0  0  0  0  0  0
   -4.3437   -9.3597    9.5487 H   0  0  0  0  0  0  0  0  0  0  0  0
   -6.1462   -7.7677    9.2463 H   0  0  0  0  0  0  0  0  0  0  0  0
   -7.0205   -8.1525    6.5474 H   0  0  0  0  0  0  0  0  0  0  0  0
   -7.6683   -6.4206    4.8051 H   0  0  0  0  0  0  0  0  0  0  0  0
  -10.5066   -6.2923    7.8397 H   0  0  0  0  0  0  0  0  0  0  0  0
   -9.0186   -9.6384   11.2699 H   0  0  0  0  0  0  0  0  0  0  0  0
  -11.1982   -9.1322   12.5123 H   0  0  0  0  0  0  0  0  0  0  0  0
  -13.5899   -2.1608    5.7024 H   0  0  0  0  0  0  0  0  0  0  0  0
  -11.7349   -3.0312    4.1674 H   0  0  0  0  0  0  0  0  0  0  0  0
   -9.1507   -2.6314    4.6978 H   0  0  0  0  0  0  0  0  0  0  0  0
   -8.4932   -1.8418    2.5036 H   0  0  0  0  0  0  0  0  0  0  0  0
   -1.8275   -1.8945    0.4688 H   0  0  0  0  0  0  0  0  0  0  0  0
    2.9475   -1.5839   -1.7331 H   0  0  0  0  0  0  0  0  0  0  0  0
    3.3611   -3.2458   -1.8395 H   0  0  0  0  0  0  0  0  0  0  0  0
    5.4624   -2.8677   -0.8594 H   0  0  0  0  0  0  0  0  0  0  0  0
    4.7500   -0.0293   -1.3868 H   0  0  0  0  0  0  0  0  0  0  0  0
    5.4432   -1.1562   -2.5282 H   0  0  0  0  0  0  0  0  0  0  0  0
    6.3554   -0.6657   -1.1209 H   0  0  0  0  0  0  0  0  0  0  0  0
    4.5670   -0.6733    0.9531 H   0  0  0  0  0  0  0  0  0  0  0  0
    6.0394   -3.1787    1.5092 H   0  0  0  0  0  0  0  0  0  0  0  0
    5.7164   -1.8821    2.6350 H   0  0  0  0  0  0  0  0  0  0  0  0
    6.7296   -1.5962    1.2405 H   0  0  0  0  0  0  0  0  0  0  0  0
    3.6513   -3.4221    1.6727 H   0  0  0  0  0  0  0  0  0  0  0  0
    2.8599   -1.9394    2.0094 H   0  0  0  0  0  0  0  0  0  0  0  0
  1  2  1  0  0  0  0
  1 74  1  0  0  0  0
  1 75  1  0  0  0  0
  1 76  1  0  0  0  0
  2  3  1  0  0  0  0
  2 63  2  0  0  0  0
  3  4  1  0  0  0  0
  4  5  1  0  0  0  0
  4 62  2  0  0  0  0
  5  6  2  0  0  0  0
  5  7  1  0  0  0  0
  7  8  1  0  0  0  0
  7 77  1  0  0  0  0
  8  9  1  0  0  0  0
  8 78  1  0  0  0  0
  8 79  1  0  0  0  0
  9 10  1  0  0  0  0
  9 80  1  0  0  0  0
  9 81  1  0  0  0  0
 10 11  1  0  0  0  0
 10 82  1  0  0  0  0
 10 83  1  0  0  0  0
 11 12  1  0  0  0  0
 11 84  1  0  0  0  0
 12 13  2  0  0  0  0
 12 14  1  0  0  0  0
 14 15  1  0  0  0  0
 14 61  2  0  0  0  0
 15 16  2  0  0  0  0
 15 85  1  0  0  0  0
 16 17  1  0  0  0  0
 16 86  1  0  0  0  0
 17 18  1  0  0  0  0
 17 60  2  0  0  0  0
 18 19  1  0  0  0  0
 18 54  2  0  0  0  0
 19 20  2  0  0  0  0
 19 59  1  0  0  0  0
 20 21  1  0  0  0  0
 21 22  2  0  0  0  0
 21 58  1  0  0  0  0
 22 23  1  0  0  0  0
 22 29  1  0  0  0  0
 23 24  1  0  0  0  0
 23 28  2  0  0  0  0
 24 25  2  0  0  0  0
 24 87  1  0  0  0  0
 25 26  1  0  0  0  0
 25 88  1  0  0  0  0
 26 27  2  0  0  0  0
 26 89  1  0  0  0  0
 27 28  1  0  0  0  0
 27 90  1  0  0  0  0
 28 91  1  0  0  0  0
 29 30  2  0  0  0  0
 29 33  1  0  0  0  0
 30 31  1  0  0  0  0
 30 92  1  0  0  0  0
 31 32  2  0  0  0  0
 31 93  1  0  0  0  0
 32 33  1  0  0  0  0
 32 34  1  0  0  0  0
 33 94  1  0  0  0  0
 34 35  1  0  0  0  0
 34 41  2  0  0  0  0
 35 36  1  0  0  0  0
 35 40  2  0  0  0  0
 36 37  2  0  0  0  0
 36 95  1  0  0  0  0
 37 38  1  0  0  0  0
 37 96  1  0  0  0  0
 38 39  2  0  0  0  0
 38 97  1  0  0  0  0
 39 40  1  0  0  0  0
 39 98  1  0  0  0  0
 40 99  1  0  0  0  0
 41 42  1  0  0  0  0
 41 57  1  0  0  0  0
 42 43  2  0  0  0  0
 43 44  1  0  0  0  0
 43 56  1  0  0  0  0
 44 45  1  0  0  0  0
 44 51  2  0  0  0  0
 45 46  1  0  0  0  0
 45 50  2  0  0  0  0
 46 47  2  0  0  0  0
 46100  1  0  0  0  0
 47 48  1  0  0  0  0
 47101  1  0  0  0  0
 48 49  2  0  0  0  0
 48102  1  0  0  0  0
 49 50  1  0  0  0  0
 49103  1  0  0  0  0
 50104  1  0  0  0  0
 51 52  1  0  0  0  0
 51 55  1  0  0  0  0
 52 53  2  0  0  0  0
 52105  1  0  0  0  0
 53 54  1  0  0  0  0
 53106  1  0  0  0  0
 54 55  1  0  0  0  0
 55107  1  0  0  0  0
 56 57  2  0  0  0  0
 56108  1  0  0  0  0
 57109  1  0  0  0  0
 58 59  2  0  0  0  0
 58110  1  0  0  0  0
 59111  1  0  0  0  0
 60 61  1  0  0  0  0
 60112  1  0  0  0  0
 61113  1  0  0  0  0
 62 63  1  0  0  0  0
 62114  1  0  0  0  0
 63 64  1  0  0  0  0
 64 65  2  0  0  0  0
 64 66  2  0  0  0  0
 64 67  1  0  0  0  0
 67 68  1  0  0  0  0
 67 73  1  0  0  0  0
 68 69  1  0  0  0  0
 68115  1  0  0  0  0
 68116  1  0  0  0  0
 69 70  1  0  0  0  0
 69 71  1  0  0  0  0
 69117  1  6  0  0  0
 70118  1  0  0  0  0
 70119  1  0  0  0  0
 70120  1  0  0  0  0
 71 73  1  0  0  0  0
 71 72  1  0  0  0  0
 71121  1  1  0  0  0
 72122  1  0  0  0  0
 72123  1  0  0  0  0
 72124  1  0  0  0  0
 73125  1  0  0  0  0
 73126  1  0  0  0  0
M  END
$$$$
