2_2_1506
 OpenBabel04152301363D

127138  0  0  1  0  0  0  0  0999 V2000
    3.8660    5.4290   -4.4077 C   0  0  0  0  0  0  0  0  0  0  0  0
    3.2064    5.0237   -3.1408 C   0  0  0  0  0  0  0  0  0  0  0  0
    2.3870    5.7629   -2.3967 C   0  0  0  0  0  0  0  0  0  0  0  0
    1.9122    4.8628   -1.3070 C   0  0  1  0  0  0  0  0  0  0  0  0
    0.3972    4.5370   -1.3381 C   0  0  2  0  0  0  0  0  0  0  0  0
    0.0699    3.6603   -2.4927 N   0  0  0  0  0  0  0  0  0  0  0  0
   -0.8281    4.1787   -3.1980 N   0  0  0  0  0  0  0  0  0  0  0  0
   -1.2265    5.4909   -2.6464 C   0  0  2  0  0  0  0  0  0  0  0  0
   -1.0227    6.8703   -3.8313 S   0  0  0  0  0  0  0  0  0  0  0  0
   -0.4346    5.7356   -1.4466 N   0  0  0  0  0  0  0  0  0  0  0  0
   -0.6982    6.5017   -0.3660 N   0  0  0  0  0  0  0  0  0  0  0  0
   -1.8098    7.1653   -0.3299 C   0  0  0  0  0  0  0  0  0  0  0  0
   -2.1104    8.0530    0.8064 C   0  0  0  0  0  0  0  0  0  0  0  0
   -3.4322    8.3445    1.1423 C   0  0  0  0  0  0  0  0  0  0  0  0
   -3.6952    9.1598    2.2504 C   0  0  0  0  0  0  0  0  0  0  0  0
   -2.6453    9.7081    3.0087 C   0  0  0  0  0  0  0  0  0  0  0  0
   -3.0081   10.5415    4.1920 C   0  0  0  0  0  0  0  0  0  0  0  0
   -4.1223   11.0638    4.2357 O   0  0  0  0  0  0  0  0  0  0  0  0
   -2.1742   10.7307    5.2673 N   0  0  0  0  0  0  0  0  0  0  0  0
   -0.8527   10.2080    5.5821 C   0  0  0  0  0  0  0  0  0  0  0  0
    0.2595   11.1796    5.1604 C   0  0  0  0  0  0  0  0  0  0  0  0
    0.5166   12.2458    6.2094 C   0  0  0  0  0  0  0  0  0  0  0  0
    1.1636   11.6981    7.4026 N   0  0  0  0  0  0  0  0  0  0  0  0
    1.5021   12.3406    8.5773 C   0  0  0  0  0  0  0  0  0  0  0  0
    2.3333   11.8621    9.3338 O   0  0  0  0  0  0  0  0  0  0  0  0
    0.8428   13.6158    8.9044 C   0  0  0  0  0  0  0  0  0  0  0  0
    1.5438   14.6625    9.5113 C   0  0  0  0  0  0  0  0  0  0  0  0
    0.8958   15.8793    9.7059 C   0  0  0  0  0  0  0  0  0  0  0  0
   -0.4113   16.0407    9.2247 C   0  0  0  0  0  0  0  0  0  0  0  0
   -1.0805   17.3324    9.2530 C   0  0  0  0  0  0  0  0  0  0  0  0
   -0.3592   18.4120    8.5333 C   0  0  0  0  0  0  0  0  0  0  0  0
    0.1689   19.4687    9.0505 N   0  0  0  0  0  0  0  0  0  0  0  0
    0.6799   20.2041    7.9873 C   0  0  0  0  0  0  0  0  0  0  0  0
    0.8065   21.5581    8.0700 C   0  0  0  0  0  0  0  0  0  0  0  0
    0.6312   22.4968    6.9014 C   0  0  0  0  0  0  0  0  0  0  0  0
    0.7854   23.8777    7.1276 C   0  0  0  0  0  0  0  0  0  0  0  0
    0.2818   24.8250    6.2292 C   0  0  0  0  0  0  0  0  0  0  0  0
   -0.3350   24.4161    5.0523 C   0  0  0  0  0  0  0  0  0  0  0  0
   -0.4258   23.0630    4.7625 C   0  0  0  0  0  0  0  0  0  0  0  0
    0.0395   22.1194    5.6823 C   0  0  0  0  0  0  0  0  0  0  0  0
    0.6428   22.0174    9.4281 C   0  0  0  0  0  0  0  0  0  0  0  0
    1.2803   21.7562   10.6250 C   0  0  0  0  0  0  0  0  0  0  0  0
    0.2311   21.6879   11.5880 C   0  0  0  0  0  0  0  0  0  0  0  0
   -0.9698   22.0037   10.9495 C   0  0  0  0  0  0  0  0  0  0  0  0
   -0.5809   22.5548    9.7572 N   0  0  0  0  0  0  0  0  0  0  0  0
   -2.3477   21.7610   11.3142 C   0  0  0  0  0  0  0  0  0  0  0  0
   -2.5933   21.3119   12.7360 C   0  0  0  0  0  0  0  0  0  0  0  0
   -2.9903   20.0056   13.0763 C   0  0  0  0  0  0  0  0  0  0  0  0
   -3.0761   19.6051   14.4141 C   0  0  0  0  0  0  0  0  0  0  0  0
   -2.7338   20.4946   15.4291 C   0  0  0  0  0  0  0  0  0  0  0  0
   -2.3166   21.7845   15.1086 C   0  0  0  0  0  0  0  0  0  0  0  0
   -2.2542   22.1908   13.7743 C   0  0  0  0  0  0  0  0  0  0  0  0
   -3.3847   21.6834   10.4276 C   0  0  0  0  0  0  0  0  0  0  0  0
   -4.5608   21.0290   10.7631 N   0  0  0  0  0  0  0  0  0  0  0  0
   -4.9849   20.5283    9.6388 C   0  0  0  0  0  0  0  0  0  0  0  0
   -5.5390   19.1586    9.5244 C   0  0  0  0  0  0  0  0  0  0  0  0
   -6.9030   18.8979    9.0115 C   0  0  0  0  0  0  0  0  0  0  0  0
   -7.8990   19.8861    9.0893 C   0  0  0  0  0  0  0  0  0  0  0  0
   -9.0799   19.7846    8.3398 C   0  0  0  0  0  0  0  0  0  0  0  0
   -9.2935   18.6869    7.5104 C   0  0  0  0  0  0  0  0  0  0  0  0
   -8.3426   17.6742    7.4549 C   0  0  0  0  0  0  0  0  0  0  0  0
   -7.1609   17.7794    8.1980 C   0  0  0  0  0  0  0  0  0  0  0  0
   -4.5155   18.2947    9.7414 C   0  0  0  0  0  0  0  0  0  0  0  0
   -4.5488   16.8823   10.0738 C   0  0  0  0  0  0  0  0  0  0  0  0
   -3.2798   16.4215   10.1276 C   0  0  0  0  0  0  0  0  0  0  0  0
   -2.3570   17.4700    9.6735 C   0  0  0  0  0  0  0  0  0  0  0  0
   -3.1549   18.5697    9.6428 N   0  0  0  0  0  0  0  0  0  0  0  0
   -4.4615   21.1622    8.4380 C   0  0  0  0  0  0  0  0  0  0  0  0
   -3.4373   21.8354    8.9728 C   0  0  0  0  0  0  0  0  0  0  0  0
    0.6826   19.3172    6.8515 C   0  0  0  0  0  0  0  0  0  0  0  0
   -0.0636   18.2384    7.1008 C   0  0  0  0  0  0  0  0  0  0  0  0
   -1.0778   14.9962    8.5967 C   0  0  0  0  0  0  0  0  0  0  0  0
   -0.5006   13.7570    8.5734 C   0  0  0  0  0  0  0  0  0  0  0  0
   -1.3333    9.4679    2.5942 C   0  0  0  0  0  0  0  0  0  0  0  0
   -1.0608    8.6171    1.5252 C   0  0  0  0  0  0  0  0  0  0  0  0
    2.7139    3.6256   -1.5640 N   0  0  0  0  0  0  0  0  0  0  0  0
    3.3914    3.7666   -2.6240 N   0  0  0  0  0  0  0  0  0  0  0  0
    3.5991    6.4384   -4.6417 H   0  0  0  0  0  0  0  0  0  0  0  0
    3.5465    4.7831   -5.1987 H   0  0  0  0  0  0  0  0  0  0  0  0
    4.9277    5.3576   -4.2958 H   0  0  0  0  0  0  0  0  0  0  0  0
    2.1333    6.7524   -2.5434 H   0  0  0  0  0  0  0  0  0  0  0  0
    2.0407    5.3143   -0.3455 H   0  0  0  0  0  0  0  0  0  0  0  0
    0.1867    4.0464   -0.4108 H   0  0  0  0  0  0  0  0  0  0  0  0
   -2.2721    5.4525   -2.4224 H   0  0  0  0  0  0  0  0  0  0  0  0
    0.2894    6.9872   -4.1696 H   0  0  0  0  0  0  0  0  0  0  0  0
   -2.4887    7.0716   -1.1015 H   0  0  0  0  0  0  0  0  0  0  0  0
   -4.2090    7.9632    0.5799 H   0  0  0  0  0  0  0  0  0  0  0  0
   -4.6725    9.3609    2.5140 H   0  0  0  0  0  0  0  0  0  0  0  0
   -2.5394   11.3336    5.9546 H   0  0  0  0  0  0  0  0  0  0  0  0
   -0.7156    9.2800    5.0675 H   0  0  0  0  0  0  0  0  0  0  0  0
   -0.7921   10.0724    6.6417 H   0  0  0  0  0  0  0  0  0  0  0  0
   -0.0279   11.6570    4.2469 H   0  0  0  0  0  0  0  0  0  0  0  0
    1.1602   10.6151    5.0378 H   0  0  0  0  0  0  0  0  0  0  0  0
   -0.4178   12.6831    6.4933 H   0  0  0  0  0  0  0  0  0  0  0  0
    1.1730   12.9759    5.7839 H   0  0  0  0  0  0  0  0  0  0  0  0
    1.3883   10.7404    7.3623 H   0  0  0  0  0  0  0  0  0  0  0  0
    2.5236   14.5354    9.8095 H   0  0  0  0  0  0  0  0  0  0  0  0
    1.3711   16.6521   10.1977 H   0  0  0  0  0  0  0  0  0  0  0  0
    1.2806   24.1983    7.9744 H   0  0  0  0  0  0  0  0  0  0  0  0
    0.3686   25.8313    6.4411 H   0  0  0  0  0  0  0  0  0  0  0  0
   -0.7226   25.1146    4.3989 H   0  0  0  0  0  0  0  0  0  0  0  0
   -0.8368   22.7530    3.8680 H   0  0  0  0  0  0  0  0  0  0  0  0
   -0.0538   21.1158    5.4606 H   0  0  0  0  0  0  0  0  0  0  0  0
    2.2925   21.6368   10.7867 H   0  0  0  0  0  0  0  0  0  0  0  0
    0.3405   21.4466   12.5854 H   0  0  0  0  0  0  0  0  0  0  0  0
   -1.0857   23.2160    9.2306 H   0  0  0  0  0  0  0  0  0  0  0  0
   -3.2215   19.3332   12.3283 H   0  0  0  0  0  0  0  0  0  0  0  0
   -3.3928   18.6512   14.6484 H   0  0  0  0  0  0  0  0  0  0  0  0
   -2.7890   20.1991   16.4163 H   0  0  0  0  0  0  0  0  0  0  0  0
   -2.0529   22.4415   15.8595 H   0  0  0  0  0  0  0  0  0  0  0  0
   -1.9541   23.1522   13.5490 H   0  0  0  0  0  0  0  0  0  0  0  0
   -7.7591   20.7000    9.7082 H   0  0  0  0  0  0  0  0  0  0  0  0
   -9.7939   20.5270    8.4033 H   0  0  0  0  0  0  0  0  0  0  0  0
  -10.1518   18.6254    6.9407 H   0  0  0  0  0  0  0  0  0  0  0  0
   -8.5081   16.8437    6.8650 H   0  0  0  0  0  0  0  0  0  0  0  0
   -6.4638   17.0200    8.1480 H   0  0  0  0  0  0  0  0  0  0  0  0
   -5.3999   16.3232   10.2412 H   0  0  0  0  0  0  0  0  0  0  0  0
   -3.0017   15.4780   10.4397 H   0  0  0  0  0  0  0  0  0  0  0  0
   -2.8001   19.4841    9.5579 H   0  0  0  0  0  0  0  0  0  0  0  0
   -4.7859   21.1080    7.4598 H   0  0  0  0  0  0  0  0  0  0  0  0
   -2.7647   22.3949    8.4255 H   0  0  0  0  0  0  0  0  0  0  0  0
    1.1898   19.4913    5.9697 H   0  0  0  0  0  0  0  0  0  0  0  0
   -0.3556   17.4837    6.4603 H   0  0  0  0  0  0  0  0  0  0  0  0
   -1.9965   15.1535    8.1536 H   0  0  0  0  0  0  0  0  0  0  0  0
   -1.0594   12.9299    8.3113 H   0  0  0  0  0  0  0  0  0  0  0  0
   -0.5528    9.9283    3.0880 H   0  0  0  0  0  0  0  0  0  0  0  0
   -0.0841    8.4060    1.2673 H   0  0  0  0  0  0  0  0  0  0  0  0
  1  2  1  0  0  0  0
  1 78  1  0  0  0  0
  1 79  1  0  0  0  0
  1 80  1  0  0  0  0
  2  3  2  0  0  0  0
  2 77  1  0  0  0  0
  3  4  1  0  0  0  0
  3 81  1  0  0  0  0
  4 76  1  0  0  0  0
  4 82  1  1  0  0  0
  5  6  1  0  0  0  0
  5 10  1  0  0  0  0
  5  4  1  0  0  0  0
  5 83  1  1  0  0  0
  6  7  2  0  0  0  0
  7  8  1  0  0  0  0
  8 10  1  0  0  0  0
  8  9  1  0  0  0  0
  8 84  1  1  0  0  0
  9 85  1  0  0  0  0
 10 11  1  0  0  0  0
 11 12  2  0  0  0  0
 12 13  1  0  0  0  0
 12 86  1  0  0  0  0
 13 14  1  0  0  0  0
 13 75  2  0  0  0  0
 14 15  2  0  0  0  0
 14 87  1  0  0  0  0
 15 16  1  0  0  0  0
 15 88  1  0  0  0  0
 16 17  1  0  0  0  0
 16 74  2  0  0  0  0
 17 18  2  0  0  0  0
 17 19  1  0  0  0  0
 19 20  1  0  0  0  0
 19 89  1  0  0  0  0
 20 21  1  0  0  0  0
 20 90  1  0  0  0  0
 20 91  1  0  0  0  0
 21 22  1  0  0  0  0
 21 92  1  0  0  0  0
 21 93  1  0  0  0  0
 22 23  1  0  0  0  0
 22 94  1  0  0  0  0
 22 95  1  0  0  0  0
 23 24  1  0  0  0  0
 23 96  1  0  0  0  0
 24 25  2  0  0  0  0
 24 26  1  0  0  0  0
 26 27  1  0  0  0  0
 26 73  2  0  0  0  0
 27 28  2  0  0  0  0
 27 97  1  0  0  0  0
 28 29  1  0  0  0  0
 28 98  1  0  0  0  0
 29 30  1  0  0  0  0
 29 72  2  0  0  0  0
 30 31  1  0  0  0  0
 30 66  2  0  0  0  0
 31 32  2  0  0  0  0
 31 71  1  0  0  0  0
 32 33  1  0  0  0  0
 33 34  2  0  0  0  0
 33 70  1  0  0  0  0
 34 35  1  0  0  0  0
 34 41  1  0  0  0  0
 35 36  1  0  0  0  0
 35 40  2  0  0  0  0
 36 37  2  0  0  0  0
 36 99  1  0  0  0  0
 37 38  1  0  0  0  0
 37100  1  0  0  0  0
 38 39  2  0  0  0  0
 38101  1  0  0  0  0
 39 40  1  0  0  0  0
 39102  1  0  0  0  0
 40103  1  0  0  0  0
 41 42  2  0  0  0  0
 41 45  1  0  0  0  0
 42 43  1  0  0  0  0
 42104  1  0  0  0  0
 43 44  2  0  0  0  0
 43105  1  0  0  0  0
 44 45  1  0  0  0  0
 44 46  1  0  0  0  0
 45106  1  0  0  0  0
 46 47  1  0  0  0  0
 46 53  2  0  0  0  0
 47 48  1  0  0  0  0
 47 52  2  0  0  0  0
 48 49  2  0  0  0  0
 48107  1  0  0  0  0
 49 50  1  0  0  0  0
 49108  1  0  0  0  0
 50 51  2  0  0  0  0
 50109  1  0  0  0  0
 51 52  1  0  0  0  0
 51110  1  0  0  0  0
 52111  1  0  0  0  0
 53 54  1  0  0  0  0
 53 69  1  0  0  0  0
 54 55  2  0  0  0  0
 55 56  1  0  0  0  0
 55 68  1  0  0  0  0
 56 57  1  0  0  0  0
 56 63  2  0  0  0  0
 57 58  1  0  0  0  0
 57 62  2  0  0  0  0
 58 59  2  0  0  0  0
 58112  1  0  0  0  0
 59 60  1  0  0  0  0
 59113  1  0  0  0  0
 60 61  2  0  0  0  0
 60114  1  0  0  0  0
 61 62  1  0  0  0  0
 61115  1  0  0  0  0
 62116  1  0  0  0  0
 63 64  1  0  0  0  0
 63 67  1  0  0  0  0
 64 65  2  0  0  0  0
 64117  1  0  0  0  0
 65 66  1  0  0  0  0
 65118  1  0  0  0  0
 66 67  1  0  0  0  0
 67119  1  0  0  0  0
 68 69  2  0  0  0  0
 68120  1  0  0  0  0
 69121  1  0  0  0  0
 70 71  2  0  0  0  0
 70122  1  0  0  0  0
 71123  1  0  0  0  0
 72 73  1  0  0  0  0
 72124  1  0  0  0  0
 73125  1  0  0  0  0
 74 75  1  0  0  0  0
 74126  1  0  0  0  0
 75127  1  0  0  0  0
 76 77  2  0  0  0  0
M  END
$$$$
