2_3_3966
 OpenBabel04152301373D

123134  0  0  1  0  0  0  0  0999 V2000
    2.0734    0.4911    1.0488 O   0  0  0  0  0  0  0  0  0  0  0  0
    3.0959   -0.0357    0.6311 C   0  0  0  0  0  0  0  0  0  0  0  0
    3.2394   -1.3676    0.6546 O   0  0  0  0  0  0  0  0  0  0  0  0
    2.7348   -2.1263   -0.4378 C   0  0  0  0  0  0  0  0  0  0  0  0
    2.6295   -1.4730   -1.8348 C   0  0  0  0  0  0  0  0  0  0  0  0
    2.2246   -0.0704   -1.9478 O   0  0  0  0  0  0  0  0  0  0  0  0
    0.9376    0.2497   -1.6451 C   0  0  0  0  0  0  0  0  0  0  0  0
    0.1316   -0.6112   -1.3036 O   0  0  0  0  0  0  0  0  0  0  0  0
    0.5094    1.7464   -1.7423 C   0  0  2  0  0  0  0  0  0  0  0  0
    1.2334    2.8091   -2.5788 C   0  0  0  0  0  0  0  0  0  0  0  0
    1.3213    4.0461   -1.6634 C   0  0  0  0  0  0  0  0  0  0  0  0
    1.6489    5.1473   -2.0837 O   0  0  0  0  0  0  0  0  0  0  0  0
    1.1678    3.6103   -0.3047 N   0  0  0  0  0  0  0  0  0  0  0  0
    1.8396    4.2812    0.8546 C   0  0  0  0  0  0  0  0  0  0  0  0
    1.6486    5.6992    0.7504 C   0  0  0  0  0  0  0  0  0  0  0  0
    2.1903    6.6412    1.6274 C   0  0  0  0  0  0  0  0  0  0  0  0
    2.9396    6.2047    2.6962 C   0  0  0  0  0  0  0  0  0  0  0  0
    3.5885    7.3597    3.7976 Cl  0  0  0  0  0  0  0  0  0  0  0  0
    3.1809    4.8376    2.8760 C   0  0  0  0  0  0  0  0  0  0  0  0
    2.6985    3.8149    1.9928 C   0  0  0  0  0  0  0  0  0  0  0  0
    3.4207    2.4471    2.5626 C   0  0  0  0  0  0  0  0  0  0  0  0
    3.0882    2.0264    3.6701 O   0  0  0  0  0  0  0  0  0  0  0  0
    4.7424    1.8002    1.9659 C   0  0  0  0  0  0  0  0  0  0  0  0
    5.1516    0.0556    1.9883 C   0  0  0  0  0  0  0  0  0  0  0  0
    5.6489   -0.8880    0.5048 C   0  0  0  0  0  0  0  0  0  0  0  0
    5.7894   -0.1598   -1.1065 C   0  0  0  0  0  0  0  0  0  0  0  0
    5.5154    1.5948   -1.2252 C   0  0  0  0  0  0  0  0  0  0  0  0
    5.0219    2.6104    0.4742 C   0  0  0  0  0  0  0  0  0  0  0  0
    0.3045    2.4358   -0.3476 C   0  0  0  0  0  0  0  0  0  0  0  0
    4.3194    0.8487    0.0922 C   0  0  0  0  0  0  0  0  0  0  0  0
    6.2931    1.1874    0.4788 C   0  0  0  0  0  0  0  0  0  0  0  0
    7.0781    2.6487   -0.1913 C   0  0  0  0  0  0  0  0  0  0  0  0
    6.0778    3.7868   -1.0553 C   0  0  0  0  0  0  0  0  0  0  0  0
    6.4641    5.1859   -1.1647 C   0  0  0  0  0  0  0  0  0  0  0  0
    6.7480    5.9814    0.0770 C   0  0  0  0  0  0  0  0  0  0  0  0
    7.1261    7.2243    0.1709 N   0  0  0  0  0  0  0  0  0  0  0  0
    7.2465    7.4810    1.5343 C   0  0  0  0  0  0  0  0  0  0  0  0
    7.8467    8.5415    2.1175 C   0  0  0  0  0  0  0  0  0  0  0  0
    8.0194    8.5214    3.6174 C   0  0  0  0  0  0  0  0  0  0  0  0
    8.7678    7.5094    4.2549 C   0  0  0  0  0  0  0  0  0  0  0  0
    8.8241    7.4200    5.6500 C   0  0  0  0  0  0  0  0  0  0  0  0
    8.1798    8.3739    6.4318 C   0  0  0  0  0  0  0  0  0  0  0  0
    7.4815    9.4138    5.8187 C   0  0  0  0  0  0  0  0  0  0  0  0
    7.3946    9.4833    4.4222 C   0  0  0  0  0  0  0  0  0  0  0  0
    8.3361    9.6173    1.3056 C   0  0  0  0  0  0  0  0  0  0  0  0
    9.0607   10.7345    1.6528 C   0  0  0  0  0  0  0  0  0  0  0  0
    9.2426   11.4885    0.4852 C   0  0  0  0  0  0  0  0  0  0  0  0
    8.6943   10.8060   -0.5983 C   0  0  0  0  0  0  0  0  0  0  0  0
    8.1257    9.6718   -0.0727 N   0  0  0  0  0  0  0  0  0  0  0  0
    8.7292   11.1689   -1.9963 C   0  0  0  0  0  0  0  0  0  0  0  0
    9.5092   12.3961   -2.3236 C   0  0  0  0  0  0  0  0  0  0  0  0
    8.8514   13.5663   -2.7245 C   0  0  0  0  0  0  0  0  0  0  0  0
    9.5892   14.7087   -3.0067 C   0  0  0  0  0  0  0  0  0  0  0  0
   10.9741   14.7003   -2.8343 C   0  0  0  0  0  0  0  0  0  0  0  0
   11.6291   13.5473   -2.4001 C   0  0  0  0  0  0  0  0  0  0  0  0
   10.9012   12.3882   -2.1640 C   0  0  0  0  0  0  0  0  0  0  0  0
    8.1604   10.5473   -3.0618 C   0  0  0  0  0  0  0  0  0  0  0  0
    7.3725    9.4161   -3.1152 N   0  0  0  0  0  0  0  0  0  0  0  0
    7.0685    9.2398   -4.3849 C   0  0  0  0  0  0  0  0  0  0  0  0
    6.3142    8.1089   -5.0111 C   0  0  0  0  0  0  0  0  0  0  0  0
    6.0151    7.9623   -6.4574 C   0  0  0  0  0  0  0  0  0  0  0  0
    7.0404    7.7370   -7.3891 C   0  0  0  0  0  0  0  0  0  0  0  0
    6.7406    7.4834   -8.7319 C   0  0  0  0  0  0  0  0  0  0  0  0
    5.4136    7.4187   -9.1534 C   0  0  0  0  0  0  0  0  0  0  0  0
    4.3840    7.6096   -8.2348 C   0  0  0  0  0  0  0  0  0  0  0  0
    4.6821    7.8882   -6.8976 C   0  0  0  0  0  0  0  0  0  0  0  0
    6.1050    7.0701   -4.1926 C   0  0  0  0  0  0  0  0  0  0  0  0
    5.6269    5.7647   -4.5970 C   0  0  0  0  0  0  0  0  0  0  0  0
    5.7687    4.9402   -3.5550 C   0  0  0  0  0  0  0  0  0  0  0  0
    6.2605    5.6964   -2.3874 C   0  0  0  0  0  0  0  0  0  0  0  0
    6.3921    6.9605   -2.8556 N   0  0  0  0  0  0  0  0  0  0  0  0
    7.5940   10.2560   -5.2890 C   0  0  0  0  0  0  0  0  0  0  0  0
    8.2955   10.9984   -4.4425 C   0  0  0  0  0  0  0  0  0  0  0  0
    6.7380    6.3449    2.2418 C   0  0  0  0  0  0  0  0  0  0  0  0
    6.5408    5.3489    1.3958 C   0  0  0  0  0  0  0  0  0  0  0  0
    4.3462    3.5404   -1.3781 C   0  0  0  0  0  0  0  0  0  0  0  0
    3.4993    2.1046   -0.8438 C   0  0  0  0  0  0  0  0  0  0  0  0
    1.7492   -2.4433   -0.1675 H   0  0  0  0  0  0  0  0  0  0  0  0
    3.4706   -2.8913   -0.5732 H   0  0  0  0  0  0  0  0  0  0  0  0
    1.9206   -2.0473   -2.3939 H   0  0  0  0  0  0  0  0  0  0  0  0
    3.6397   -1.4714   -2.1874 H   0  0  0  0  0  0  0  0  0  0  0  0
   -0.3606    1.5027   -2.3155 H   0  0  0  0  0  0  0  0  0  0  0  0
    0.6760    3.0350   -3.4638 H   0  0  0  0  0  0  0  0  0  0  0  0
    2.1986    2.4781   -2.9007 H   0  0  0  0  0  0  0  0  0  0  0  0
    1.0691    6.0483   -0.0289 H   0  0  0  0  0  0  0  0  0  0  0  0
    2.0312    7.6496    1.4764 H   0  0  0  0  0  0  0  0  0  0  0  0
    3.7398    4.5476    3.6936 H   0  0  0  0  0  0  0  0  0  0  0  0
    5.1037   -0.4443    2.8899 H   0  0  0  0  0  0  0  0  0  0  0  0
    5.8581   -1.8931    0.6094 H   0  0  0  0  0  0  0  0  0  0  0  0
    6.0195   -0.7275   -1.9371 H   0  0  0  0  0  0  0  0  0  0  0  0
    5.6037    2.0851   -2.1290 H   0  0  0  0  0  0  0  0  0  0  0  0
    4.9376    3.6383    0.4379 H   0  0  0  0  0  0  0  0  0  0  0  0
    0.5708    1.7585    0.4367 H   0  0  0  0  0  0  0  0  0  0  0  0
   -0.7192    2.7171   -0.2145 H   0  0  0  0  0  0  0  0  0  0  0  0
    6.8332    0.5229    1.0548 H   0  0  0  0  0  0  0  0  0  0  0  0
    8.0898    2.8129   -0.0706 H   0  0  0  0  0  0  0  0  0  0  0  0
    9.2829    6.8228    3.6819 H   0  0  0  0  0  0  0  0  0  0  0  0
    9.3423    6.6483    6.0982 H   0  0  0  0  0  0  0  0  0  0  0  0
    8.2185    8.3121    7.4612 H   0  0  0  0  0  0  0  0  0  0  0  0
    7.0259   10.1367    6.3974 H   0  0  0  0  0  0  0  0  0  0  0  0
    6.8646   10.2513    3.9814 H   0  0  0  0  0  0  0  0  0  0  0  0
    9.4055   10.9726    2.5959 H   0  0  0  0  0  0  0  0  0  0  0  0
    9.7103   12.4071    0.4359 H   0  0  0  0  0  0  0  0  0  0  0  0
    7.6388    8.9935   -0.5943 H   0  0  0  0  0  0  0  0  0  0  0  0
    7.8230   13.5794   -2.8098 H   0  0  0  0  0  0  0  0  0  0  0  0
    9.1147   15.5613   -3.3429 H   0  0  0  0  0  0  0  0  0  0  0  0
   11.5188   15.5548   -3.0298 H   0  0  0  0  0  0  0  0  0  0  0  0
   12.6508   13.5557   -2.2549 H   0  0  0  0  0  0  0  0  0  0  0  0
   11.3840   11.5241   -1.8720 H   0  0  0  0  0  0  0  0  0  0  0  0
    8.0250    7.7586   -7.0806 H   0  0  0  0  0  0  0  0  0  0  0  0
    7.5040    7.3439   -9.4122 H   0  0  0  0  0  0  0  0  0  0  0  0
    5.1943    7.2298  -10.1440 H   0  0  0  0  0  0  0  0  0  0  0  0
    3.4007    7.5453   -8.5415 H   0  0  0  0  0  0  0  0  0  0  0  0
    3.9141    8.0413   -6.2254 H   0  0  0  0  0  0  0  0  0  0  0  0
    5.2454    5.5158   -5.5230 H   0  0  0  0  0  0  0  0  0  0  0  0
    5.5652    3.9285   -3.5654 H   0  0  0  0  0  0  0  0  0  0  0  0
    6.6655    7.7219   -2.2945 H   0  0  0  0  0  0  0  0  0  0  0  0
    7.4579   10.3670   -6.3059 H   0  0  0  0  0  0  0  0  0  0  0  0
    8.8723   11.8049   -4.7287 H   0  0  0  0  0  0  0  0  0  0  0  0
    6.5537    6.3092    3.2566 H   0  0  0  0  0  0  0  0  0  0  0  0
    6.3004    4.3675    1.6056 H   0  0  0  0  0  0  0  0  0  0  0  0
    3.8253    4.2654   -1.8958 H   0  0  0  0  0  0  0  0  0  0  0  0
    2.5014    1.9889   -1.0799 H   0  0  0  0  0  0  0  0  0  0  0  0
  1  2  2  0  0  0  0
  2  3  1  0  0  0  0
  2 30  1  0  0  0  0
  3  4  1  0  0  0  0
  4  5  1  0  0  0  0
  4 78  1  0  0  0  0
  4 79  1  0  0  0  0
  5  6  1  0  0  0  0
  5 80  1  0  0  0  0
  5 81  1  0  0  0  0
  6  7  1  0  0  0  0
  7  8  2  0  0  0  0
  7  9  1  0  0  0  0
  9 10  1  0  0  0  0
  9 29  1  0  0  0  0
  9 82  1  6  0  0  0
 10 11  1  0  0  0  0
 10 83  1  0  0  0  0
 10 84  1  0  0  0  0
 11 12  2  0  0  0  0
 11 13  1  0  0  0  0
 13 14  1  0  0  0  0
 13 29  1  0  0  0  0
 14 15  1  0  0  0  0
 14 20  2  0  0  0  0
 15 16  2  0  0  0  0
 15 85  1  0  0  0  0
 16 17  1  0  0  0  0
 16 86  1  0  0  0  0
 17 18  1  0  0  0  0
 17 19  2  0  0  0  0
 19 20  1  0  0  0  0
 19 87  1  0  0  0  0
 20 21  1  0  0  0  0
 21 22  2  0  0  0  0
 21 23  1  0  0  0  0
 23 24  1  0  0  0  0
 23 28  2  0  0  0  0
 24 25  2  0  0  0  0
 24 88  1  0  0  0  0
 25 26  1  0  0  0  0
 25 89  1  0  0  0  0
 26 27  2  0  0  0  0
 26 90  1  0  0  0  0
 27 28  1  0  0  0  0
 27 91  1  0  0  0  0
 28 92  1  0  0  0  0
 29 93  1  0  0  0  0
 29 94  1  0  0  0  0
 30 31  1  0  0  0  0
 30 77  2  0  0  0  0
 31 32  2  0  0  0  0
 31 95  1  0  0  0  0
 32 33  1  0  0  0  0
 32 96  1  0  0  0  0
 33 34  1  0  0  0  0
 33 76  2  0  0  0  0
 34 35  1  0  0  0  0
 34 70  2  0  0  0  0
 35 36  2  0  0  0  0
 35 75  1  0  0  0  0
 36 37  1  0  0  0  0
 37 38  2  0  0  0  0
 37 74  1  0  0  0  0
 38 39  1  0  0  0  0
 38 45  1  0  0  0  0
 39 40  1  0  0  0  0
 39 44  2  0  0  0  0
 40 41  2  0  0  0  0
 40 97  1  0  0  0  0
 41 42  1  0  0  0  0
 41 98  1  0  0  0  0
 42 43  2  0  0  0  0
 42 99  1  0  0  0  0
 43 44  1  0  0  0  0
 43100  1  0  0  0  0
 44101  1  0  0  0  0
 45 46  2  0  0  0  0
 45 49  1  0  0  0  0
 46 47  1  0  0  0  0
 46102  1  0  0  0  0
 47 48  2  0  0  0  0
 47103  1  0  0  0  0
 48 49  1  0  0  0  0
 48 50  1  0  0  0  0
 49104  1  0  0  0  0
 50 51  1  0  0  0  0
 50 57  2  0  0  0  0
 51 52  1  0  0  0  0
 51 56  2  0  0  0  0
 52 53  2  0  0  0  0
 52105  1  0  0  0  0
 53 54  1  0  0  0  0
 53106  1  0  0  0  0
 54 55  2  0  0  0  0
 54107  1  0  0  0  0
 55 56  1  0  0  0  0
 55108  1  0  0  0  0
 56109  1  0  0  0  0
 57 58  1  0  0  0  0
 57 73  1  0  0  0  0
 58 59  2  0  0  0  0
 59 60  1  0  0  0  0
 59 72  1  0  0  0  0
 60 61  1  0  0  0  0
 60 67  2  0  0  0  0
 61 62  1  0  0  0  0
 61 66  2  0  0  0  0
 62 63  2  0  0  0  0
 62110  1  0  0  0  0
 63 64  1  0  0  0  0
 63111  1  0  0  0  0
 64 65  2  0  0  0  0
 64112  1  0  0  0  0
 65 66  1  0  0  0  0
 65113  1  0  0  0  0
 66114  1  0  0  0  0
 67 68  1  0  0  0  0
 67 71  1  0  0  0  0
 68 69  2  0  0  0  0
 68115  1  0  0  0  0
 69 70  1  0  0  0  0
 69116  1  0  0  0  0
 70 71  1  0  0  0  0
 71117  1  0  0  0  0
 72 73  2  0  0  0  0
 72118  1  0  0  0  0
 73119  1  0  0  0  0
 74 75  2  0  0  0  0
 74120  1  0  0  0  0
 75121  1  0  0  0  0
 76 77  1  0  0  0  0
 76122  1  0  0  0  0
 77123  1  0  0  0  0
M  END
$$$$
