2_3_5929
 OpenBabel04152301363D

120129  0  0  1  0  0  0  0  0999 V2000
    4.6543    1.9557    4.8338 C   0  0  0  0  0  0  0  0  0  0  0  0
    3.5735    0.8899    4.5617 C   0  0  1  0  0  0  0  0  0  0  0  0
    3.1306    0.8790    3.0707 C   0  0  0  0  0  0  0  0  0  0  0  0
    3.0258   -0.1455    2.3910 O   0  0  0  0  0  0  0  0  0  0  0  0
    2.5951    2.1891    2.4535 C   0  0  2  0  0  0  0  0  0  0  0  0
    1.0990    2.2502    2.7861 C   0  0  0  0  0  0  0  0  0  0  0  0
    2.8495    2.2131    0.9186 C   0  0  1  0  0  0  0  0  0  0  0  0
    2.0265    3.2665    0.1710 C   0  0  0  0  0  0  0  0  0  0  0  0
    4.3000    2.4155    0.5001 C   0  0  0  0  0  0  0  0  0  0  0  0
    4.6999    2.1071   -0.6182 O   0  0  0  0  0  0  0  0  0  0  0  0
    5.0590    3.0424    1.4358 O   0  0  0  0  0  0  0  0  0  0  0  0
    6.4024    3.3723    1.0220 C   0  0  0  0  0  0  0  0  0  0  0  0
    7.4271    2.3115    1.4288 C   0  0  0  0  0  0  0  0  0  0  0  0
    7.1416    1.0340    0.8323 O   0  0  0  0  0  0  0  0  0  0  0  0
    6.4557    0.1960    1.6392 C   0  0  0  0  0  0  0  0  0  0  0  0
    6.1034    0.4153    2.7864 O   0  0  0  0  0  0  0  0  0  0  0  0
    6.1685   -1.0712    0.9713 C   0  0  0  0  0  0  0  0  0  0  0  0
    4.9792   -1.2227    0.2563 C   0  0  0  0  0  0  0  0  0  0  0  0
    4.6196   -2.4753   -0.2287 C   0  0  0  0  0  0  0  0  0  0  0  0
    5.4722   -3.5683   -0.0311 C   0  0  0  0  0  0  0  0  0  0  0  0
    5.1580   -4.8804   -0.6298 C   0  0  0  0  0  0  0  0  0  0  0  0
    4.7296   -6.0309    0.2249 C   0  0  0  0  0  0  0  0  0  0  0  0
    4.5884   -7.2893   -0.1032 N   0  0  0  0  0  0  0  0  0  0  0  0
    4.2078   -7.9408    1.0616 C   0  0  0  0  0  0  0  0  0  0  0  0
    3.9477   -9.2583    1.2380 C   0  0  0  0  0  0  0  0  0  0  0  0
    3.6002   -9.7112    2.6267 C   0  0  0  0  0  0  0  0  0  0  0  0
    2.3392   -9.4525    3.1853 C   0  0  0  0  0  0  0  0  0  0  0  0
    2.0407   -9.8790    4.4820 C   0  0  0  0  0  0  0  0  0  0  0  0
    2.9875  -10.5888    5.2203 C   0  0  0  0  0  0  0  0  0  0  0  0
    4.2354  -10.8708    4.6669 C   0  0  0  0  0  0  0  0  0  0  0  0
    4.5433  -10.4291    3.3788 C   0  0  0  0  0  0  0  0  0  0  0  0
    4.0225  -10.2444    0.1912 C   0  0  0  0  0  0  0  0  0  0  0  0
    3.7577  -11.6014    0.2598 C   0  0  0  0  0  0  0  0  0  0  0  0
    4.0055  -12.1595   -1.0006 C   0  0  0  0  0  0  0  0  0  0  0  0
    4.3869  -11.1433   -1.8624 C   0  0  0  0  0  0  0  0  0  0  0  0
    4.3943   -9.9755   -1.1180 N   0  0  0  0  0  0  0  0  0  0  0  0
    4.7224  -11.2330   -3.2598 C   0  0  0  0  0  0  0  0  0  0  0  0
    4.6800  -12.5832   -3.9100 C   0  0  0  0  0  0  0  0  0  0  0  0
    5.8618  -13.2865   -4.1873 C   0  0  0  0  0  0  0  0  0  0  0  0
    5.8064  -14.5365   -4.8058 C   0  0  0  0  0  0  0  0  0  0  0  0
    4.5725  -15.1019   -5.1279 C   0  0  0  0  0  0  0  0  0  0  0  0
    3.3920  -14.4194   -4.8363 C   0  0  0  0  0  0  0  0  0  0  0  0
    3.4442  -13.1618   -4.2347 C   0  0  0  0  0  0  0  0  0  0  0  0
    5.0508  -10.1878   -4.0571 C   0  0  0  0  0  0  0  0  0  0  0  0
    5.1540   -8.8444   -3.7317 N   0  0  0  0  0  0  0  0  0  0  0  0
    5.5084   -8.2360   -4.8374 C   0  0  0  0  0  0  0  0  0  0  0  0
    5.7614   -6.7783   -5.0662 C   0  0  0  0  0  0  0  0  0  0  0  0
    6.2127   -6.2604   -6.3791 C   0  0  0  0  0  0  0  0  0  0  0  0
    5.2987   -6.0918   -7.4277 C   0  0  0  0  0  0  0  0  0  0  0  0
    5.7130   -5.5315   -8.6377 C   0  0  0  0  0  0  0  0  0  0  0  0
    7.0354   -5.1198   -8.8023 C   0  0  0  0  0  0  0  0  0  0  0  0
    7.9518   -5.2815   -7.7647 C   0  0  0  0  0  0  0  0  0  0  0  0
    7.5462   -5.8598   -6.5613 C   0  0  0  0  0  0  0  0  0  0  0  0
    5.6044   -5.9197   -4.0443 C   0  0  0  0  0  0  0  0  0  0  0  0
    5.8599   -4.4854   -4.1083 C   0  0  0  0  0  0  0  0  0  0  0  0
    5.7330   -3.9684   -2.8778 C   0  0  0  0  0  0  0  0  0  0  0  0
    5.3375   -5.0331   -1.9531 C   0  0  0  0  0  0  0  0  0  0  0  0
    5.2383   -6.1474   -2.7423 N   0  0  0  0  0  0  0  0  0  0  0  0
    5.6798   -9.1243   -5.9931 C   0  0  0  0  0  0  0  0  0  0  0  0
    5.3677  -10.3020   -5.4681 C   0  0  0  0  0  0  0  0  0  0  0  0
    4.1421   -6.9382    2.1056 C   0  0  0  0  0  0  0  0  0  0  0  0
    4.4288   -5.7318    1.6329 C   0  0  0  0  0  0  0  0  0  0  0  0
    6.6724   -3.4029    0.6798 C   0  0  0  0  0  0  0  0  0  0  0  0
    7.0141   -2.1563    1.1983 C   0  0  0  0  0  0  0  0  0  0  0  0
    3.9677   -0.4402    5.2397 C   0  0  0  0  0  0  0  0  0  0  0  0
    3.9660   -1.6956    4.6129 C   0  0  0  0  0  0  0  0  0  0  0  0
    4.3564   -2.8575    5.2929 C   0  0  0  0  0  0  0  0  0  0  0  0
    4.7648   -2.7936    6.6192 C   0  0  0  0  0  0  0  0  0  0  0  0
    4.7676   -1.5683    7.2723 C   0  0  0  0  0  0  0  0  0  0  0  0
    4.3617   -0.4128    6.5959 C   0  0  0  0  0  0  0  0  0  0  0  0
    4.3758    2.8747    4.3618 H   0  0  0  0  0  0  0  0  0  0  0  0
    5.5915    1.6220    4.4397 H   0  0  0  0  0  0  0  0  0  0  0  0
    4.7456    2.1099    5.8887 H   0  0  0  0  0  0  0  0  0  0  0  0
    2.6460    1.1348    5.0356 H   0  0  0  0  0  0  0  0  0  0  0  0
    3.0972    3.0455    2.8528 H   0  0  0  0  0  0  0  0  0  0  0  0
    0.6084    1.3895    2.3820 H   0  0  0  0  0  0  0  0  0  0  0  0
    0.6748    3.1354    2.3602 H   0  0  0  0  0  0  0  0  0  0  0  0
    0.9702    2.2684    3.8482 H   0  0  0  0  0  0  0  0  0  0  0  0
    2.5412    1.2258    0.6445 H   0  0  0  0  0  0  0  0  0  0  0  0
    2.3514    4.2441    0.4601 H   0  0  0  0  0  0  0  0  0  0  0  0
    0.9911    3.1484    0.4138 H   0  0  0  0  0  0  0  0  0  0  0  0
    2.1620    3.1428   -0.8832 H   0  0  0  0  0  0  0  0  0  0  0  0
    6.6788    4.3038    1.4701 H   0  0  0  0  0  0  0  0  0  0  0  0
    6.4050    3.4287   -0.0465 H   0  0  0  0  0  0  0  0  0  0  0  0
    7.4129    2.2071    2.4936 H   0  0  0  0  0  0  0  0  0  0  0  0
    8.3890    2.6305    1.0855 H   0  0  0  0  0  0  0  0  0  0  0  0
    4.3688   -0.4077    0.0882 H   0  0  0  0  0  0  0  0  0  0  0  0
    3.7275   -2.5989   -0.7325 H   0  0  0  0  0  0  0  0  0  0  0  0
    1.6286   -8.9446    2.6356 H   0  0  0  0  0  0  0  0  0  0  0  0
    1.1183   -9.6685    4.8941 H   0  0  0  0  0  0  0  0  0  0  0  0
    2.7640  -10.9054    6.1768 H   0  0  0  0  0  0  0  0  0  0  0  0
    4.9315  -11.4059    5.2092 H   0  0  0  0  0  0  0  0  0  0  0  0
    5.4717  -10.6320    2.9763 H   0  0  0  0  0  0  0  0  0  0  0  0
    3.4337  -12.1133    1.0953 H   0  0  0  0  0  0  0  0  0  0  0  0
    3.9188  -13.1581   -1.2460 H   0  0  0  0  0  0  0  0  0  0  0  0
    4.6290   -9.0852   -1.4667 H   0  0  0  0  0  0  0  0  0  0  0  0
    6.7750  -12.8783   -3.9332 H   0  0  0  0  0  0  0  0  0  0  0  0
    6.6786  -15.0427   -5.0249 H   0  0  0  0  0  0  0  0  0  0  0  0
    4.5333  -16.0273   -5.5830 H   0  0  0  0  0  0  0  0  0  0  0  0
    2.4800  -14.8445   -5.0655 H   0  0  0  0  0  0  0  0  0  0  0  0
    2.5695  -12.6548   -4.0276 H   0  0  0  0  0  0  0  0  0  0  0  0
    4.3161   -6.3827   -7.3053 H   0  0  0  0  0  0  0  0  0  0  0  0
    5.0394   -5.4218   -9.4118 H   0  0  0  0  0  0  0  0  0  0  0  0
    7.3357   -4.6949   -9.6935 H   0  0  0  0  0  0  0  0  0  0  0  0
    8.9293   -4.9738   -7.8863 H   0  0  0  0  0  0  0  0  0  0  0  0
    8.2305   -5.9939   -5.8005 H   0  0  0  0  0  0  0  0  0  0  0  0
    6.0991   -3.9553   -4.9608 H   0  0  0  0  0  0  0  0  0  0  0  0
    5.8887   -2.9804   -2.6234 H   0  0  0  0  0  0  0  0  0  0  0  0
    4.9351   -7.0228   -2.4092 H   0  0  0  0  0  0  0  0  0  0  0  0
    5.9667   -8.8941   -6.9573 H   0  0  0  0  0  0  0  0  0  0  0  0
    5.3523  -11.1880   -5.9970 H   0  0  0  0  0  0  0  0  0  0  0  0
    3.9032   -7.1367    3.0898 H   0  0  0  0  0  0  0  0  0  0  0  0
    4.4382   -4.8240    2.1236 H   0  0  0  0  0  0  0  0  0  0  0  0
    7.3031   -4.2079    0.8183 H   0  0  0  0  0  0  0  0  0  0  0  0
    7.8821   -2.0372    1.7436 H   0  0  0  0  0  0  0  0  0  0  0  0
    3.6700   -1.7652    3.6267 H   0  0  0  0  0  0  0  0  0  0  0  0
    4.3403   -3.7667    4.8049 H   0  0  0  0  0  0  0  0  0  0  0  0
    5.0632   -3.6485    7.1142 H   0  0  0  0  0  0  0  0  0  0  0  0
    5.0693   -1.5099    8.2575 H   0  0  0  0  0  0  0  0  0  0  0  0
    4.3498    0.4861    7.1028 H   0  0  0  0  0  0  0  0  0  0  0  0
  1  2  1  0  0  0  0
  1 71  1  0  0  0  0
  1 72  1  0  0  0  0
  1 73  1  0  0  0  0
  2  3  1  0  0  0  0
  2 65  1  0  0  0  0
  2 74  1  1  0  0  0
  3  4  2  0  0  0  0
  5  7  1  0  0  0  0
  5  6  1  0  0  0  0
  5  3  1  0  0  0  0
  5 75  1  1  0  0  0
  6 76  1  0  0  0  0
  6 77  1  0  0  0  0
  6 78  1  0  0  0  0
  7  8  1  0  0  0  0
  7  9  1  0  0  0  0
  7 79  1  6  0  0  0
  8 80  1  0  0  0  0
  8 81  1  0  0  0  0
  8 82  1  0  0  0  0
  9 10  2  0  0  0  0
  9 11  1  0  0  0  0
 11 12  1  0  0  0  0
 12 13  1  0  0  0  0
 12 83  1  0  0  0  0
 12 84  1  0  0  0  0
 13 14  1  0  0  0  0
 13 85  1  0  0  0  0
 13 86  1  0  0  0  0
 14 15  1  0  0  0  0
 15 16  2  0  0  0  0
 15 17  1  0  0  0  0
 17 18  1  0  0  0  0
 17 64  2  0  0  0  0
 18 19  2  0  0  0  0
 18 87  1  0  0  0  0
 19 20  1  0  0  0  0
 19 88  1  0  0  0  0
 20 21  1  0  0  0  0
 20 63  2  0  0  0  0
 21 22  1  0  0  0  0
 21 57  2  0  0  0  0
 22 23  2  0  0  0  0
 22 62  1  0  0  0  0
 23 24  1  0  0  0  0
 24 25  2  0  0  0  0
 24 61  1  0  0  0  0
 25 26  1  0  0  0  0
 25 32  1  0  0  0  0
 26 27  1  0  0  0  0
 26 31  2  0  0  0  0
 27 28  2  0  0  0  0
 27 89  1  0  0  0  0
 28 29  1  0  0  0  0
 28 90  1  0  0  0  0
 29 30  2  0  0  0  0
 29 91  1  0  0  0  0
 30 31  1  0  0  0  0
 30 92  1  0  0  0  0
 31 93  1  0  0  0  0
 32 33  2  0  0  0  0
 32 36  1  0  0  0  0
 33 34  1  0  0  0  0
 33 94  1  0  0  0  0
 34 35  2  0  0  0  0
 34 95  1  0  0  0  0
 35 36  1  0  0  0  0
 35 37  1  0  0  0  0
 36 96  1  0  0  0  0
 37 38  1  0  0  0  0
 37 44  2  0  0  0  0
 38 39  1  0  0  0  0
 38 43  2  0  0  0  0
 39 40  2  0  0  0  0
 39 97  1  0  0  0  0
 40 41  1  0  0  0  0
 40 98  1  0  0  0  0
 41 42  2  0  0  0  0
 41 99  1  0  0  0  0
 42 43  1  0  0  0  0
 42100  1  0  0  0  0
 43101  1  0  0  0  0
 44 45  1  0  0  0  0
 44 60  1  0  0  0  0
 45 46  2  0  0  0  0
 46 47  1  0  0  0  0
 46 59  1  0  0  0  0
 47 48  1  0  0  0  0
 47 54  2  0  0  0  0
 48 49  1  0  0  0  0
 48 53  2  0  0  0  0
 49 50  2  0  0  0  0
 49102  1  0  0  0  0
 50 51  1  0  0  0  0
 50103  1  0  0  0  0
 51 52  2  0  0  0  0
 51104  1  0  0  0  0
 52 53  1  0  0  0  0
 52105  1  0  0  0  0
 53106  1  0  0  0  0
 54 55  1  0  0  0  0
 54 58  1  0  0  0  0
 55 56  2  0  0  0  0
 55107  1  0  0  0  0
 56 57  1  0  0  0  0
 56108  1  0  0  0  0
 57 58  1  0  0  0  0
 58109  1  0  0  0  0
 59 60  2  0  0  0  0
 59110  1  0  0  0  0
 60111  1  0  0  0  0
 61 62  2  0  0  0  0
 61112  1  0  0  0  0
 62113  1  0  0  0  0
 63 64  1  0  0  0  0
 63114  1  0  0  0  0
 64115  1  0  0  0  0
 65 66  1  0  0  0  0
 65 70  2  0  0  0  0
 66 67  2  0  0  0  0
 66116  1  0  0  0  0
 67 68  1  0  0  0  0
 67117  1  0  0  0  0
 68 69  2  0  0  0  0
 68118  1  0  0  0  0
 69 70  1  0  0  0  0
 69119  1  0  0  0  0
 70120  1  0  0  0  0
M  END
$$$$
