2_3_7597
 OpenBabel04152301373D

136147  0  0  1  0  0  0  0  0999 V2000
    0.1607   -0.5665    0.2280 C   0  0  0  0  0  0  0  0  0  0  0  0
    0.1244    0.1989    1.5581 C   0  0  0  0  0  0  0  0  0  0  0  0
   -1.3286   -0.0758    2.0711 C   0  0  0  0  0  0  0  0  0  0  0  0
    1.2404   -0.2221    2.6136 C   0  0  2  0  0  0  0  0  0  0  0  0
    2.7033   -0.1076    2.0837 C   0  0  0  0  0  0  0  0  0  0  0  0
    1.1524   -1.5931    3.3073 C   0  0  0  0  0  0  0  0  0  0  0  0
    2.1222   -2.3290    3.4670 O   0  0  0  0  0  0  0  0  0  0  0  0
   -0.0838   -1.8895    3.7806 O   0  0  0  0  0  0  0  0  0  0  0  0
   -0.2402   -3.2310    4.2856 C   0  0  0  0  0  0  0  0  0  0  0  0
   -0.6510   -4.1796    3.1556 C   0  0  0  0  0  0  0  0  0  0  0  0
    0.3391   -4.1653    2.1081 O   0  0  0  0  0  0  0  0  0  0  0  0
   -0.1317   -4.3507    0.8500 C   0  0  0  0  0  0  0  0  0  0  0  0
   -1.2800   -4.6307    0.5518 O   0  0  0  0  0  0  0  0  0  0  0  0
    0.9256   -4.0968   -0.1698 C   0  0  0  0  0  0  0  0  0  0  0  0
    2.0214   -3.2767    0.0923 C   0  0  0  0  0  0  0  0  0  0  0  0
    2.8339   -2.8194   -0.9535 C   0  0  0  0  0  0  0  0  0  0  0  0
    2.6708   -3.2914   -2.2623 C   0  0  0  0  0  0  0  0  0  0  0  0
    3.5581   -2.8405   -3.3824 C   0  0  0  0  0  0  0  0  0  0  0  0
    2.9672   -2.3244   -4.6766 C   0  0  0  0  0  0  0  0  0  0  0  0
    3.5378   -2.1726   -5.8485 N   0  0  0  0  0  0  0  0  0  0  0  0
    2.5347   -1.7421   -6.7114 C   0  0  0  0  0  0  0  0  0  0  0  0
    2.6158   -1.4484   -8.0333 C   0  0  0  0  0  0  0  0  0  0  0  0
    1.3449   -1.0846   -8.7525 C   0  0  0  0  0  0  0  0  0  0  0  0
    0.7441    0.1721   -8.5879 C   0  0  0  0  0  0  0  0  0  0  0  0
   -0.4019    0.5079   -9.3143 C   0  0  0  0  0  0  0  0  0  0  0  0
   -0.9401   -0.3949  -10.2313 C   0  0  0  0  0  0  0  0  0  0  0  0
   -0.3438   -1.6409  -10.4147 C   0  0  0  0  0  0  0  0  0  0  0  0
    0.7859   -1.9887   -9.6716 C   0  0  0  0  0  0  0  0  0  0  0  0
    3.8307   -1.4825   -8.8085 C   0  0  0  0  0  0  0  0  0  0  0  0
    4.0016   -1.2284  -10.1605 C   0  0  0  0  0  0  0  0  0  0  0  0
    5.3589   -1.3723  -10.4693 C   0  0  0  0  0  0  0  0  0  0  0  0
    6.0377   -1.6697   -9.3005 C   0  0  0  0  0  0  0  0  0  0  0  0
    5.0873   -1.7557   -8.2950 N   0  0  0  0  0  0  0  0  0  0  0  0
    7.4494   -1.8615   -9.1078 C   0  0  0  0  0  0  0  0  0  0  0  0
    8.3673   -1.6847  -10.2831 C   0  0  0  0  0  0  0  0  0  0  0  0
    9.0051   -2.7807  -10.8848 C   0  0  0  0  0  0  0  0  0  0  0  0
    9.9022   -2.5836  -11.9368 C   0  0  0  0  0  0  0  0  0  0  0  0
   10.1401   -1.2972  -12.4204 C   0  0  0  0  0  0  0  0  0  0  0  0
    9.4834   -0.2055  -11.8545 C   0  0  0  0  0  0  0  0  0  0  0  0
    8.6068   -0.3964  -10.7857 C   0  0  0  0  0  0  0  0  0  0  0  0
    8.0285   -2.1534   -7.9188 C   0  0  0  0  0  0  0  0  0  0  0  0
    7.4297   -2.3231   -6.6779 N   0  0  0  0  0  0  0  0  0  0  0  0
    8.4024   -2.6189   -5.8525 C   0  0  0  0  0  0  0  0  0  0  0  0
    8.3443   -2.8963   -4.3791 C   0  0  0  0  0  0  0  0  0  0  0  0
    9.5834   -3.2486   -3.6356 C   0  0  0  0  0  0  0  0  0  0  0  0
   10.5769   -2.2850   -3.4068 C   0  0  0  0  0  0  0  0  0  0  0  0
   11.7618   -2.6337   -2.7551 C   0  0  0  0  0  0  0  0  0  0  0  0
   11.9485   -3.9358   -2.2927 C   0  0  0  0  0  0  0  0  0  0  0  0
   10.9576   -4.8952   -2.4905 C   0  0  0  0  0  0  0  0  0  0  0  0
    9.7882   -4.5587   -3.1734 C   0  0  0  0  0  0  0  0  0  0  0  0
    7.1564   -2.8883   -3.7454 C   0  0  0  0  0  0  0  0  0  0  0  0
    6.9677   -3.2396   -2.3446 C   0  0  0  0  0  0  0  0  0  0  0  0
    5.6539   -3.3145   -2.0881 C   0  0  0  0  0  0  0  0  0  0  0  0
    4.9028   -2.9087   -3.2778 C   0  0  0  0  0  0  0  0  0  0  0  0
    5.8847   -2.6422   -4.2058 N   0  0  0  0  0  0  0  0  0  0  0  0
    9.7285   -2.6920   -6.4832 C   0  0  0  0  0  0  0  0  0  0  0  0
    9.4498   -2.3564   -7.7339 C   0  0  0  0  0  0  0  0  0  0  0  0
    1.3188   -1.6566   -5.9296 C   0  0  0  0  0  0  0  0  0  0  0  0
    1.5454   -1.9443   -4.6541 C   0  0  0  0  0  0  0  0  0  0  0  0
    1.6298   -4.2065   -2.4935 C   0  0  0  0  0  0  0  0  0  0  0  0
    0.7377   -4.5665   -1.4714 C   0  0  0  0  0  0  0  0  0  0  0  0
    1.0640    0.8770    3.6633 C   0  0  0  0  0  0  0  0  0  0  0  0
    0.9246    2.1527    2.8360 C   0  0  0  0  0  0  0  0  0  0  0  0
    0.3708    1.7881    1.4170 C   0  0  2  0  0  0  0  0  0  0  0  0
   -0.9417    2.5627    1.1377 C   0  0  0  0  0  0  0  0  0  0  0  0
    1.3448    2.2005    0.2230 C   0  0  0  0  0  0  0  0  0  0  0  0
    1.8239    1.3623   -0.5437 O   0  0  0  0  0  0  0  0  0  0  0  0
    1.6031    3.5395   -0.0339 N   0  0  0  0  0  0  0  0  0  0  0  0
    2.2144    3.9402   -1.3275 C   0  0  0  0  0  0  0  0  0  0  0  0
    2.7116    5.4207   -1.3810 C   0  0  0  0  0  0  0  0  0  0  0  0
    3.4524    5.7643   -0.1067 C   0  0  0  0  0  0  0  0  0  0  0  0
    4.5278    6.6376   -0.0149 C   0  0  0  0  0  0  0  0  0  0  0  0
    5.2540    6.6998    1.1792 C   0  0  0  0  0  0  0  0  0  0  0  0
    4.9474    5.8455    2.2427 C   0  0  0  0  0  0  0  0  0  0  0  0
    3.8027    5.0612    2.1887 C   0  0  0  0  0  0  0  0  0  0  0  0
    2.9960    5.1334    1.0581 C   0  0  0  0  0  0  0  0  0  0  0  0
    1.6139    4.5646    0.9770 C   0  0  0  0  0  0  0  0  0  0  0  0
   -0.0106   -1.6068    0.4104 H   0  0  0  0  0  0  0  0  0  0  0  0
    1.1184   -0.4379   -0.2315 H   0  0  0  0  0  0  0  0  0  0  0  0
   -0.6004   -0.1883   -0.4220 H   0  0  0  0  0  0  0  0  0  0  0  0
   -1.4815   -1.1310    2.1611 H   0  0  0  0  0  0  0  0  0  0  0  0
   -2.0346    0.3290    1.3764 H   0  0  0  0  0  0  0  0  0  0  0  0
   -1.4630    0.3868    3.0265 H   0  0  0  0  0  0  0  0  0  0  0  0
    2.8302    0.8315    1.5869 H   0  0  0  0  0  0  0  0  0  0  0  0
    2.8968   -0.9040    1.3958 H   0  0  0  0  0  0  0  0  0  0  0  0
    3.3862   -0.1718    2.9050 H   0  0  0  0  0  0  0  0  0  0  0  0
   -0.9954   -3.2370    5.0436 H   0  0  0  0  0  0  0  0  0  0  0  0
    0.6922   -3.5599    4.6946 H   0  0  0  0  0  0  0  0  0  0  0  0
   -1.5927   -3.8661    2.7559 H   0  0  0  0  0  0  0  0  0  0  0  0
   -0.7317   -5.1726    3.5458 H   0  0  0  0  0  0  0  0  0  0  0  0
    2.2361   -3.0041    1.0642 H   0  0  0  0  0  0  0  0  0  0  0  0
    3.5673   -2.1208   -0.7556 H   0  0  0  0  0  0  0  0  0  0  0  0
    1.1504    0.8525   -7.9269 H   0  0  0  0  0  0  0  0  0  0  0  0
   -0.8510    1.4261   -9.1718 H   0  0  0  0  0  0  0  0  0  0  0  0
   -1.7801   -0.1400  -10.7740 H   0  0  0  0  0  0  0  0  0  0  0  0
   -0.7368   -2.3059  -11.0991 H   0  0  0  0  0  0  0  0  0  0  0  0
    1.2146   -2.9188   -9.7986 H   0  0  0  0  0  0  0  0  0  0  0  0
    3.2546   -0.9759  -10.8263 H   0  0  0  0  0  0  0  0  0  0  0  0
    5.7805   -1.2737  -11.4061 H   0  0  0  0  0  0  0  0  0  0  0  0
    5.2776   -1.9781   -7.3550 H   0  0  0  0  0  0  0  0  0  0  0  0
    8.8102   -3.7366  -10.5483 H   0  0  0  0  0  0  0  0  0  0  0  0
   10.3896   -3.3905  -12.3568 H   0  0  0  0  0  0  0  0  0  0  0  0
   10.8031   -1.1534  -13.1981 H   0  0  0  0  0  0  0  0  0  0  0  0
    9.6455    0.7436  -12.2259 H   0  0  0  0  0  0  0  0  0  0  0  0
    8.1312    0.4155  -10.3618 H   0  0  0  0  0  0  0  0  0  0  0  0
   10.4314   -1.3131   -3.7218 H   0  0  0  0  0  0  0  0  0  0  0  0
   12.5004   -1.9265   -2.6155 H   0  0  0  0  0  0  0  0  0  0  0  0
   12.8212   -4.1891   -1.8036 H   0  0  0  0  0  0  0  0  0  0  0  0
   11.0885   -5.8541   -2.1321 H   0  0  0  0  0  0  0  0  0  0  0  0
    9.0678   -5.2786   -3.3402 H   0  0  0  0  0  0  0  0  0  0  0  0
    7.7227   -3.4041   -1.6605 H   0  0  0  0  0  0  0  0  0  0  0  0
    5.2370   -3.6118   -1.1921 H   0  0  0  0  0  0  0  0  0  0  0  0
    5.6942   -2.3076   -5.1119 H   0  0  0  0  0  0  0  0  0  0  0  0
   10.6376   -2.9397   -6.0621 H   0  0  0  0  0  0  0  0  0  0  0  0
   10.1550   -2.2530   -8.4803 H   0  0  0  0  0  0  0  0  0  0  0  0
    0.3951   -1.4044   -6.3147 H   0  0  0  0  0  0  0  0  0  0  0  0
    0.8941   -1.9104   -3.8543 H   0  0  0  0  0  0  0  0  0  0  0  0
    1.5192   -4.6214   -3.4319 H   0  0  0  0  0  0  0  0  0  0  0  0
   -0.0626   -5.1826   -1.6833 H   0  0  0  0  0  0  0  0  0  0  0  0
    1.9179    0.9309    4.3058 H   0  0  0  0  0  0  0  0  0  0  0  0
    0.2244    0.7059    4.3041 H   0  0  0  0  0  0  0  0  0  0  0  0
    1.8813    2.6215    2.7372 H   0  0  0  0  0  0  0  0  0  0  0  0
    0.2501    2.8254    3.3233 H   0  0  0  0  0  0  0  0  0  0  0  0
   -1.6570    2.3395    1.9015 H   0  0  0  0  0  0  0  0  0  0  0  0
   -1.3331    2.2698    0.1859 H   0  0  0  0  0  0  0  0  0  0  0  0
   -0.7414    3.6138    1.1328 H   0  0  0  0  0  0  0  0  0  0  0  0
    1.4840    3.8054   -2.0978 H   0  0  0  0  0  0  0  0  0  0  0  0
    3.0799    3.3247   -1.4575 H   0  0  0  0  0  0  0  0  0  0  0  0
    1.8705    6.0733   -1.4889 H   0  0  0  0  0  0  0  0  0  0  0  0
    3.3723    5.5395   -2.2143 H   0  0  0  0  0  0  0  0  0  0  0  0
    4.7880    7.2329   -0.8168 H   0  0  0  0  0  0  0  0  0  0  0  0
    6.0224    7.3819    1.2759 H   0  0  0  0  0  0  0  0  0  0  0  0
    5.5695    5.7980    3.0648 H   0  0  0  0  0  0  0  0  0  0  0  0
    3.5554    4.4369    2.9723 H   0  0  0  0  0  0  0  0  0  0  0  0
    1.3405    4.1433    1.9218 H   0  0  0  0  0  0  0  0  0  0  0  0
    0.9136    5.3342    0.7277 H   0  0  0  0  0  0  0  0  0  0  0  0
  1  2  1  0  0  0  0
  1 78  1  0  0  0  0
  1 79  1  0  0  0  0
  1 80  1  0  0  0  0
  2  3  1  0  0  0  0
  2  4  1  0  0  0  0
  2 64  1  0  0  0  0
  3 81  1  0  0  0  0
  3 82  1  0  0  0  0
  3 83  1  0  0  0  0
  4 62  1  0  0  0  0
  4  6  1  1  0  0  0
  4  5  1  0  0  0  0
  5 84  1  0  0  0  0
  5 85  1  0  0  0  0
  5 86  1  0  0  0  0
  6  7  2  0  0  0  0
  6  8  1  0  0  0  0
  8  9  1  0  0  0  0
  9 10  1  0  0  0  0
  9 87  1  0  0  0  0
  9 88  1  0  0  0  0
 10 11  1  0  0  0  0
 10 89  1  0  0  0  0
 10 90  1  0  0  0  0
 11 12  1  0  0  0  0
 12 13  2  0  0  0  0
 12 14  1  0  0  0  0
 14 15  1  0  0  0  0
 14 61  2  0  0  0  0
 15 16  2  0  0  0  0
 15 91  1  0  0  0  0
 16 17  1  0  0  0  0
 16 92  1  0  0  0  0
 17 18  1  0  0  0  0
 17 60  2  0  0  0  0
 18 19  1  0  0  0  0
 18 54  2  0  0  0  0
 19 20  2  0  0  0  0
 19 59  1  0  0  0  0
 20 21  1  0  0  0  0
 21 22  2  0  0  0  0
 21 58  1  0  0  0  0
 22 23  1  0  0  0  0
 22 29  1  0  0  0  0
 23 24  1  0  0  0  0
 23 28  2  0  0  0  0
 24 25  2  0  0  0  0
 24 93  1  0  0  0  0
 25 26  1  0  0  0  0
 25 94  1  0  0  0  0
 26 27  2  0  0  0  0
 26 95  1  0  0  0  0
 27 28  1  0  0  0  0
 27 96  1  0  0  0  0
 28 97  1  0  0  0  0
 29 30  2  0  0  0  0
 29 33  1  0  0  0  0
 30 31  1  0  0  0  0
 30 98  1  0  0  0  0
 31 32  2  0  0  0  0
 31 99  1  0  0  0  0
 32 33  1  0  0  0  0
 32 34  1  0  0  0  0
 33100  1  0  0  0  0
 34 35  1  0  0  0  0
 34 41  2  0  0  0  0
 35 36  1  0  0  0  0
 35 40  2  0  0  0  0
 36 37  2  0  0  0  0
 36101  1  0  0  0  0
 37 38  1  0  0  0  0
 37102  1  0  0  0  0
 38 39  2  0  0  0  0
 38103  1  0  0  0  0
 39 40  1  0  0  0  0
 39104  1  0  0  0  0
 40105  1  0  0  0  0
 41 42  1  0  0  0  0
 41 57  1  0  0  0  0
 42 43  2  0  0  0  0
 43 44  1  0  0  0  0
 43 56  1  0  0  0  0
 44 45  1  0  0  0  0
 44 51  2  0  0  0  0
 45 46  1  0  0  0  0
 45 50  2  0  0  0  0
 46 47  2  0  0  0  0
 46106  1  0  0  0  0
 47 48  1  0  0  0  0
 47107  1  0  0  0  0
 48 49  2  0  0  0  0
 48108  1  0  0  0  0
 49 50  1  0  0  0  0
 49109  1  0  0  0  0
 50110  1  0  0  0  0
 51 52  1  0  0  0  0
 51 55  1  0  0  0  0
 52 53  2  0  0  0  0
 52111  1  0  0  0  0
 53 54  1  0  0  0  0
 53112  1  0  0  0  0
 54 55  1  0  0  0  0
 55113  1  0  0  0  0
 56 57  2  0  0  0  0
 56114  1  0  0  0  0
 57115  1  0  0  0  0
 58 59  2  0  0  0  0
 58116  1  0  0  0  0
 59117  1  0  0  0  0
 60 61  1  0  0  0  0
 60118  1  0  0  0  0
 61119  1  0  0  0  0
 62 63  1  0  0  0  0
 62120  1  0  0  0  0
 62121  1  0  0  0  0
 63 64  1  0  0  0  0
 63122  1  0  0  0  0
 63123  1  0  0  0  0
 64 66  1  6  0  0  0
 64 65  1  0  0  0  0
 65124  1  0  0  0  0
 65125  1  0  0  0  0
 65126  1  0  0  0  0
 66 67  2  0  0  0  0
 66 68  1  0  0  0  0
 68 69  1  0  0  0  0
 68 77  1  0  0  0  0
 69 70  1  0  0  0  0
 69127  1  0  0  0  0
 69128  1  0  0  0  0
 70 71  1  0  0  0  0
 70129  1  0  0  0  0
 70130  1  0  0  0  0
 71 72  1  0  0  0  0
 71 76  2  0  0  0  0
 72 73  2  0  0  0  0
 72131  1  0  0  0  0
 73 74  1  0  0  0  0
 73132  1  0  0  0  0
 74 75  2  0  0  0  0
 74133  1  0  0  0  0
 75 76  1  0  0  0  0
 75134  1  0  0  0  0
 76 77  1  0  0  0  0
 77135  1  0  0  0  0
 77136  1  0  0  0  0
M  END
$$$$
