2_3_4277
 OpenBabel04152301373D

120130  0  0  0  0  0  0  0  0999 V2000
    0.4111    0.1278   -0.2217 C   0  0  0  0  0  0  0  0  0  0  0  0
   -0.0284    0.9867    0.9535 C   0  0  0  0  0  0  0  0  0  0  0  0
    0.6596    2.3141    1.0112 C   0  0  0  0  0  0  0  0  0  0  0  0
   -0.0327    3.4453    0.8205 N   0  0  0  0  0  0  0  0  0  0  0  0
    0.8479    4.4343    1.0881 N   0  0  0  0  0  0  0  0  0  0  0  0
    0.4731    5.8028    1.0912 C   0  0  0  0  0  0  0  0  0  0  0  0
    0.8345    6.5837   -0.0033 C   0  0  0  0  0  0  0  0  0  0  0  0
    0.9043    7.9669    0.1600 C   0  0  0  0  0  0  0  0  0  0  0  0
    0.5744    8.4922    1.3938 C   0  0  0  0  0  0  0  0  0  0  0  0
    0.7195   10.1655    1.7220 Cl  0  0  0  0  0  0  0  0  0  0  0  0
    0.1812    7.7247    2.4288 N   0  0  0  0  0  0  0  0  0  0  0  0
    0.1531    6.3590    2.2846 N   0  0  0  0  0  0  0  0  0  0  0  0
    2.1146    3.9475    1.3641 C   0  0  0  0  0  0  0  0  0  0  0  0
    3.2587    4.8482    1.6968 C   0  0  0  0  0  0  0  0  0  0  0  0
    3.7603    5.6243    0.4847 C   0  0  0  0  0  0  0  0  0  0  0  0
    2.0249    2.5625    1.3249 C   0  0  0  0  0  0  0  0  0  0  0  0
    3.0759    1.5321    1.6339 C   0  0  0  0  0  0  0  0  0  0  0  0
    3.8412    0.9864    0.4427 C   0  0  0  0  0  0  0  0  0  0  0  0
    4.4120   -0.1001    0.4563 O   0  0  0  0  0  0  0  0  0  0  0  0
    3.8840    1.8649   -0.5946 O   0  0  0  0  0  0  0  0  0  0  0  0
    4.8826    1.6250   -1.6018 C   0  0  0  0  0  0  0  0  0  0  0  0
    5.6853    2.9107   -1.7608 C   0  0  0  0  0  0  0  0  0  0  0  0
    6.8636    2.9849   -0.9310 O   0  0  0  0  0  0  0  0  0  0  0  0
    6.6673    3.1072    0.4078 C   0  0  0  0  0  0  0  0  0  0  0  0
    6.0287    2.3764    1.1197 O   0  0  0  0  0  0  0  0  0  0  0  0
    7.1583    4.4244    0.8647 C   0  0  0  0  0  0  0  0  0  0  0  0
    6.6729    4.8853    2.0959 C   0  0  0  0  0  0  0  0  0  0  0  0
    6.6965    6.2418    2.3612 C   0  0  0  0  0  0  0  0  0  0  0  0
    7.2949    7.1101    1.4384 C   0  0  0  0  0  0  0  0  0  0  0  0
    7.4956    8.4953    1.8510 C   0  0  0  0  0  0  0  0  0  0  0  0
    8.2666    8.5924    3.1262 C   0  0  0  0  0  0  0  0  0  0  0  0
    7.9657    9.2343    4.2062 N   0  0  0  0  0  0  0  0  0  0  0  0
    9.0042    8.9684    5.0964 C   0  0  0  0  0  0  0  0  0  0  0  0
    9.3371    9.8248    6.0977 C   0  0  0  0  0  0  0  0  0  0  0  0
   10.7748   10.1097    6.4557 C   0  0  0  0  0  0  0  0  0  0  0  0
   11.0481   10.9745    7.5269 C   0  0  0  0  0  0  0  0  0  0  0  0
   12.3144   11.5508    7.6866 C   0  0  0  0  0  0  0  0  0  0  0  0
   13.3506   11.2365    6.8115 C   0  0  0  0  0  0  0  0  0  0  0  0
   13.1290   10.3330    5.7857 C   0  0  0  0  0  0  0  0  0  0  0  0
   11.8547    9.7962    5.6037 C   0  0  0  0  0  0  0  0  0  0  0  0
    8.2680   10.7295    6.4130 C   0  0  0  0  0  0  0  0  0  0  0  0
    6.9673   10.5751    6.8495 C   0  0  0  0  0  0  0  0  0  0  0  0
    6.2285   11.5767    6.1569 C   0  0  0  0  0  0  0  0  0  0  0  0
    7.1280   12.3218    5.3928 C   0  0  0  0  0  0  0  0  0  0  0  0
    8.3540   12.0083    5.9184 N   0  0  0  0  0  0  0  0  0  0  0  0
    6.9398   13.1601    4.2319 C   0  0  0  0  0  0  0  0  0  0  0  0
    5.5167   13.5358    3.8995 C   0  0  0  0  0  0  0  0  0  0  0  0
    4.8225   13.0097    2.7946 C   0  0  0  0  0  0  0  0  0  0  0  0
    3.4650   13.2849    2.6027 C   0  0  0  0  0  0  0  0  0  0  0  0
    2.7755   14.0615    3.5303 C   0  0  0  0  0  0  0  0  0  0  0  0
    3.4433   14.5718    4.6415 C   0  0  0  0  0  0  0  0  0  0  0  0
    4.8040   14.3163    4.8205 C   0  0  0  0  0  0  0  0  0  0  0  0
    7.9053   13.4166    3.3008 C   0  0  0  0  0  0  0  0  0  0  0  0
    7.5703   13.8241    2.0178 N   0  0  0  0  0  0  0  0  0  0  0  0
    8.5241   13.3592    1.2656 C   0  0  0  0  0  0  0  0  0  0  0  0
    8.2957   12.7734   -0.0764 C   0  0  0  0  0  0  0  0  0  0  0  0
    9.0002   13.2770   -1.2780 C   0  0  0  0  0  0  0  0  0  0  0  0
    9.3444   14.6332   -1.3951 C   0  0  0  0  0  0  0  0  0  0  0  0
   10.2389   15.0681   -2.3840 C   0  0  0  0  0  0  0  0  0  0  0  0
   10.7987   14.1574   -3.2771 C   0  0  0  0  0  0  0  0  0  0  0  0
   10.4489   12.8147   -3.1973 C   0  0  0  0  0  0  0  0  0  0  0  0
    9.5621   12.3807   -2.2062 C   0  0  0  0  0  0  0  0  0  0  0  0
    7.6412   11.5956    0.0887 C   0  0  0  0  0  0  0  0  0  0  0  0
    7.0344   10.7218   -0.9026 C   0  0  0  0  0  0  0  0  0  0  0  0
    6.7284    9.5430   -0.3158 C   0  0  0  0  0  0  0  0  0  0  0  0
    7.2270    9.5539    1.0621 C   0  0  0  0  0  0  0  0  0  0  0  0
    7.5220   10.8679    1.2680 N   0  0  0  0  0  0  0  0  0  0  0  0
    9.7569   13.0179    1.9615 C   0  0  0  0  0  0  0  0  0  0  0  0
    9.3096   13.0185    3.2207 C   0  0  0  0  0  0  0  0  0  0  0  0
    9.7687    7.8873    4.5365 C   0  0  0  0  0  0  0  0  0  0  0  0
    9.4474    7.7116    3.2588 C   0  0  0  0  0  0  0  0  0  0  0  0
    7.9312    6.6211    0.2944 C   0  0  0  0  0  0  0  0  0  0  0  0
    7.8491    5.2748   -0.0032 C   0  0  0  0  0  0  0  0  0  0  0  0
   -0.1180   -0.8020   -0.2015 H   0  0  0  0  0  0  0  0  0  0  0  0
    1.4625   -0.0586   -0.1537 H   0  0  0  0  0  0  0  0  0  0  0  0
    0.1980    0.6396   -1.1369 H   0  0  0  0  0  0  0  0  0  0  0  0
    0.1822    0.4562    1.8585 H   0  0  0  0  0  0  0  0  0  0  0  0
   -1.0738    1.1785    0.8303 H   0  0  0  0  0  0  0  0  0  0  0  0
    1.0460    6.1487   -0.9149 H   0  0  0  0  0  0  0  0  0  0  0  0
    1.1939    8.5798   -0.6181 H   0  0  0  0  0  0  0  0  0  0  0  0
    4.0620    4.2552    2.0814 H   0  0  0  0  0  0  0  0  0  0  0  0
    2.9145    5.5588    2.4189 H   0  0  0  0  0  0  0  0  0  0  0  0
    4.1122    4.9384   -0.2573 H   0  0  0  0  0  0  0  0  0  0  0  0
    4.5600    6.2706    0.7809 H   0  0  0  0  0  0  0  0  0  0  0  0
    2.9608    6.2088    0.0796 H   0  0  0  0  0  0  0  0  0  0  0  0
    2.5948    0.7088    2.1193 H   0  0  0  0  0  0  0  0  0  0  0  0
    3.8023    2.0328    2.2394 H   0  0  0  0  0  0  0  0  0  0  0  0
    4.4134    1.3695   -2.5289 H   0  0  0  0  0  0  0  0  0  0  0  0
    5.5197    0.8138   -1.3174 H   0  0  0  0  0  0  0  0  0  0  0  0
    5.0494    3.7349   -1.5133 H   0  0  0  0  0  0  0  0  0  0  0  0
    6.0245    2.9351   -2.7753 H   0  0  0  0  0  0  0  0  0  0  0  0
    6.3032    4.2217    2.7944 H   0  0  0  0  0  0  0  0  0  0  0  0
    6.2780    6.6109    3.2293 H   0  0  0  0  0  0  0  0  0  0  0  0
   10.3034   11.1893    8.2083 H   0  0  0  0  0  0  0  0  0  0  0  0
   12.4809   12.2141    8.4595 H   0  0  0  0  0  0  0  0  0  0  0  0
   14.2781   11.6741    6.9266 H   0  0  0  0  0  0  0  0  0  0  0  0
   13.9022   10.0585    5.1597 H   0  0  0  0  0  0  0  0  0  0  0  0
   11.6961    9.1465    4.8177 H   0  0  0  0  0  0  0  0  0  0  0  0
    6.6090    9.8854    7.5285 H   0  0  0  0  0  0  0  0  0  0  0  0
    5.2087   11.7252    6.2105 H   0  0  0  0  0  0  0  0  0  0  0  0
    9.1477   12.5904    5.9379 H   0  0  0  0  0  0  0  0  0  0  0  0
    5.3218   12.4128    2.1168 H   0  0  0  0  0  0  0  0  0  0  0  0
    2.9746   12.9128    1.7744 H   0  0  0  0  0  0  0  0  0  0  0  0
    1.7716   14.2587    3.3949 H   0  0  0  0  0  0  0  0  0  0  0  0
    2.9308   15.1400    5.3339 H   0  0  0  0  0  0  0  0  0  0  0  0
    5.2917   14.7072    5.6417 H   0  0  0  0  0  0  0  0  0  0  0  0
    8.9332   15.3201   -0.7439 H   0  0  0  0  0  0  0  0  0  0  0  0
   10.4837   16.0684   -2.4503 H   0  0  0  0  0  0  0  0  0  0  0  0
   11.4689   14.4777   -3.9935 H   0  0  0  0  0  0  0  0  0  0  0  0
   10.8433   12.1379   -3.8691 H   0  0  0  0  0  0  0  0  0  0  0  0
    9.3142   11.3802   -2.1545 H   0  0  0  0  0  0  0  0  0  0  0  0
    6.8651   10.9621   -1.8918 H   0  0  0  0  0  0  0  0  0  0  0  0
    6.2253    8.7621   -0.7653 H   0  0  0  0  0  0  0  0  0  0  0  0
    7.6391   11.2629    2.1622 H   0  0  0  0  0  0  0  0  0  0  0  0
   10.7013   12.8302    1.5902 H   0  0  0  0  0  0  0  0  0  0  0  0
    9.8866   12.7679    4.0388 H   0  0  0  0  0  0  0  0  0  0  0  0
   10.4663    7.3283    5.0522 H   0  0  0  0  0  0  0  0  0  0  0  0
    9.9016    7.1177    2.5475 H   0  0  0  0  0  0  0  0  0  0  0  0
    8.4574    7.2598   -0.3222 H   0  0  0  0  0  0  0  0  0  0  0  0
    8.2928    4.9010   -0.8567 H   0  0  0  0  0  0  0  0  0  0  0  0
  1  2  1  0  0  0  0
  1 74  1  0  0  0  0
  1 75  1  0  0  0  0
  1 76  1  0  0  0  0
  2  3  1  0  0  0  0
  2 77  1  0  0  0  0
  2 78  1  0  0  0  0
  3  4  2  0  0  0  0
  3 16  1  0  0  0  0
  4  5  1  0  0  0  0
  5  6  1  0  0  0  0
  5 13  1  0  0  0  0
  6  7  1  0  0  0  0
  6 12  2  0  0  0  0
  7  8  2  0  0  0  0
  7 79  1  0  0  0  0
  8  9  1  0  0  0  0
  8 80  1  0  0  0  0
  9 10  1  0  0  0  0
  9 11  2  0  0  0  0
 11 12  1  0  0  0  0
 13 14  1  0  0  0  0
 13 16  2  0  0  0  0
 14 15  1  0  0  0  0
 14 81  1  0  0  0  0
 14 82  1  0  0  0  0
 15 83  1  0  0  0  0
 15 84  1  0  0  0  0
 15 85  1  0  0  0  0
 16 17  1  0  0  0  0
 17 18  1  0  0  0  0
 17 86  1  0  0  0  0
 17 87  1  0  0  0  0
 18 19  2  0  0  0  0
 18 20  1  0  0  0  0
 20 21  1  0  0  0  0
 21 22  1  0  0  0  0
 21 88  1  0  0  0  0
 21 89  1  0  0  0  0
 22 23  1  0  0  0  0
 22 90  1  0  0  0  0
 22 91  1  0  0  0  0
 23 24  1  0  0  0  0
 24 25  2  0  0  0  0
 24 26  1  0  0  0  0
 26 27  1  0  0  0  0
 26 73  2  0  0  0  0
 27 28  2  0  0  0  0
 27 92  1  0  0  0  0
 28 29  1  0  0  0  0
 28 93  1  0  0  0  0
 29 30  1  0  0  0  0
 29 72  2  0  0  0  0
 30 31  1  0  0  0  0
 30 66  2  0  0  0  0
 31 32  2  0  0  0  0
 31 71  1  0  0  0  0
 32 33  1  0  0  0  0
 33 34  2  0  0  0  0
 33 70  1  0  0  0  0
 34 35  1  0  0  0  0
 34 41  1  0  0  0  0
 35 36  1  0  0  0  0
 35 40  2  0  0  0  0
 36 37  2  0  0  0  0
 36 94  1  0  0  0  0
 37 38  1  0  0  0  0
 37 95  1  0  0  0  0
 38 39  2  0  0  0  0
 38 96  1  0  0  0  0
 39 40  1  0  0  0  0
 39 97  1  0  0  0  0
 40 98  1  0  0  0  0
 41 42  2  0  0  0  0
 41 45  1  0  0  0  0
 42 43  1  0  0  0  0
 42 99  1  0  0  0  0
 43 44  2  0  0  0  0
 43100  1  0  0  0  0
 44 45  1  0  0  0  0
 44 46  1  0  0  0  0
 45101  1  0  0  0  0
 46 47  1  0  0  0  0
 46 53  2  0  0  0  0
 47 48  1  0  0  0  0
 47 52  2  0  0  0  0
 48 49  2  0  0  0  0
 48102  1  0  0  0  0
 49 50  1  0  0  0  0
 49103  1  0  0  0  0
 50 51  2  0  0  0  0
 50104  1  0  0  0  0
 51 52  1  0  0  0  0
 51105  1  0  0  0  0
 52106  1  0  0  0  0
 53 54  1  0  0  0  0
 53 69  1  0  0  0  0
 54 55  2  0  0  0  0
 55 56  1  0  0  0  0
 55 68  1  0  0  0  0
 56 57  1  0  0  0  0
 56 63  2  0  0  0  0
 57 58  1  0  0  0  0
 57 62  2  0  0  0  0
 58 59  2  0  0  0  0
 58107  1  0  0  0  0
 59 60  1  0  0  0  0
 59108  1  0  0  0  0
 60 61  2  0  0  0  0
 60109  1  0  0  0  0
 61 62  1  0  0  0  0
 61110  1  0  0  0  0
 62111  1  0  0  0  0
 63 64  1  0  0  0  0
 63 67  1  0  0  0  0
 64 65  2  0  0  0  0
 64112  1  0  0  0  0
 65 66  1  0  0  0  0
 65113  1  0  0  0  0
 66 67  1  0  0  0  0
 67114  1  0  0  0  0
 68 69  2  0  0  0  0
 68115  1  0  0  0  0
 69116  1  0  0  0  0
 70 71  2  0  0  0  0
 70117  1  0  0  0  0
 71118  1  0  0  0  0
 72 73  1  0  0  0  0
 72119  1  0  0  0  0
 73120  1  0  0  0  0
M  END
$$$$
