2_3_6223
 OpenBabel04152301363D

116127  0  0  0  0  0  0  0  0999 V2000
    1.3630    0.0184   -1.1424 O   0  0  0  0  0  0  0  0  0  0  0  0
    2.2864   -0.4908   -0.5267 C   0  0  0  0  0  0  0  0  0  0  0  0
    3.3593   -1.0443   -1.1332 O   0  0  0  0  0  0  0  0  0  0  0  0
    4.6293   -0.3590   -1.1781 C   0  0  0  0  0  0  0  0  0  0  0  0
    4.6094    1.1671   -1.2397 C   0  0  0  0  0  0  0  0  0  0  0  0
    4.1622    1.7118    0.0120 O   0  0  0  0  0  0  0  0  0  0  0  0
    3.0482    2.4994   -0.0409 C   0  0  0  0  0  0  0  0  0  0  0  0
    2.4925    2.8680   -1.0680 O   0  0  0  0  0  0  0  0  0  0  0  0
    2.5731    2.8238    1.2835 C   0  0  0  0  0  0  0  0  0  0  0  0
    3.2155    3.5586    2.2609 C   0  0  0  0  0  0  0  0  0  0  0  0
    2.2865    3.6420    3.2587 N   0  0  0  0  0  0  0  0  0  0  0  0
    2.2117    4.5998    4.3120 C   0  0  0  0  0  0  0  0  0  0  0  0
    3.4925    5.1798    4.9173 C   0  0  0  0  0  0  0  0  0  0  0  0
    2.8175    6.4769    4.7841 N   0  0  0  0  0  0  0  0  0  0  0  0
    3.2352    7.6768    5.2553 C   0  0  0  0  0  0  0  0  0  0  0  0
    4.1744    7.7430    6.0537 O   0  0  0  0  0  0  0  0  0  0  0  0
    2.7358    8.8390    4.7566 N   0  0  0  0  0  0  0  0  0  0  0  0
    1.5827    9.1138    4.0436 C   0  0  0  0  0  0  0  0  0  0  0  0
    0.3041    8.4963    4.1640 C   0  0  0  0  0  0  0  0  0  0  0  0
   -0.5845    8.9256    3.2015 C   0  0  0  0  0  0  0  0  0  0  0  0
    0.0654   10.1954    2.2619 S   0  0  0  0  0  0  0  0  0  0  0  0
    1.5389   10.1501    3.1335 C   0  0  0  0  0  0  0  0  0  0  0  0
    2.0090    6.0009    3.6877 C   0  0  0  0  0  0  0  0  0  0  0  0
    1.2126    2.8785    2.9884 N   0  0  0  0  0  0  0  0  0  0  0  0
    1.3447    2.4328    1.7494 N   0  0  0  0  0  0  0  0  0  0  0  0
    2.1878   -0.8133    0.9200 C   0  0  0  0  0  0  0  0  0  0  0  0
    3.2761   -1.2621    1.6765 C   0  0  0  0  0  0  0  0  0  0  0  0
    3.0835   -1.7135    2.9711 C   0  0  0  0  0  0  0  0  0  0  0  0
    1.7969   -1.7153    3.5061 C   0  0  0  0  0  0  0  0  0  0  0  0
    1.6011   -2.3337    4.8076 C   0  0  0  0  0  0  0  0  0  0  0  0
    2.2197   -1.6281    5.9607 C   0  0  0  0  0  0  0  0  0  0  0  0
    3.0959   -2.0776    6.7994 N   0  0  0  0  0  0  0  0  0  0  0  0
    3.2912   -1.0622    7.7337 C   0  0  0  0  0  0  0  0  0  0  0  0
    3.7979   -1.3089    8.9741 C   0  0  0  0  0  0  0  0  0  0  0  0
    3.3204   -0.5965   10.2168 C   0  0  0  0  0  0  0  0  0  0  0  0
    3.9255   -0.9004   11.4504 C   0  0  0  0  0  0  0  0  0  0  0  0
    3.3073   -0.5754   12.6647 C   0  0  0  0  0  0  0  0  0  0  0  0
    2.0954    0.1075   12.6760 C   0  0  0  0  0  0  0  0  0  0  0  0
    1.5128    0.4856   11.4759 C   0  0  0  0  0  0  0  0  0  0  0  0
    2.1112    0.1235   10.2666 C   0  0  0  0  0  0  0  0  0  0  0  0
    4.4751   -2.5751    9.0431 C   0  0  0  0  0  0  0  0  0  0  0  0
    5.5754   -3.1308    8.4223 C   0  0  0  0  0  0  0  0  0  0  0  0
    5.2250   -4.4980    8.2164 C   0  0  0  0  0  0  0  0  0  0  0  0
    3.9637   -4.7042    8.7784 C   0  0  0  0  0  0  0  0  0  0  0  0
    3.7957   -3.6270    9.6081 N   0  0  0  0  0  0  0  0  0  0  0  0
    2.9412   -5.6931    8.5263 C   0  0  0  0  0  0  0  0  0  0  0  0
    3.3296   -6.8469    7.6330 C   0  0  0  0  0  0  0  0  0  0  0  0
    2.8935   -6.9554    6.2992 C   0  0  0  0  0  0  0  0  0  0  0  0
    3.3781   -7.9670    5.4636 C   0  0  0  0  0  0  0  0  0  0  0  0
    4.3279   -8.8661    5.9411 C   0  0  0  0  0  0  0  0  0  0  0  0
    4.7856   -8.7594    7.2532 C   0  0  0  0  0  0  0  0  0  0  0  0
    4.2868   -7.7607    8.0934 C   0  0  0  0  0  0  0  0  0  0  0  0
    1.6160   -5.5329    8.8179 C   0  0  0  0  0  0  0  0  0  0  0  0
    0.6463   -6.2994    8.1884 N   0  0  0  0  0  0  0  0  0  0  0  0
   -0.4097   -5.5385    8.1588 C   0  0  0  0  0  0  0  0  0  0  0  0
   -1.3210   -5.4609    6.9948 C   0  0  0  0  0  0  0  0  0  0  0  0
   -2.7851   -5.6324    7.1130 C   0  0  0  0  0  0  0  0  0  0  0  0
   -3.3403   -6.5323    8.0346 C   0  0  0  0  0  0  0  0  0  0  0  0
   -4.7084   -6.4929    8.3423 C   0  0  0  0  0  0  0  0  0  0  0  0
   -5.5422   -5.5568    7.7334 C   0  0  0  0  0  0  0  0  0  0  0  0
   -5.0163   -4.6740    6.7978 C   0  0  0  0  0  0  0  0  0  0  0  0
   -3.6525   -4.7124    6.4929 C   0  0  0  0  0  0  0  0  0  0  0  0
   -0.6378   -4.8851    5.9757 C   0  0  0  0  0  0  0  0  0  0  0  0
   -0.9585   -4.8303    4.5605 C   0  0  0  0  0  0  0  0  0  0  0  0
   -0.0563   -4.0362    3.9425 C   0  0  0  0  0  0  0  0  0  0  0  0
    0.8098   -3.4153    4.9508 C   0  0  0  0  0  0  0  0  0  0  0  0
    0.5118   -4.1134    6.0792 N   0  0  0  0  0  0  0  0  0  0  0  0
   -0.4095   -4.4339    9.1054 C   0  0  0  0  0  0  0  0  0  0  0  0
    0.8813   -4.4386    9.4518 C   0  0  0  0  0  0  0  0  0  0  0  0
    2.6207    0.1036    7.2144 C   0  0  0  0  0  0  0  0  0  0  0  0
    1.8789   -0.2094    6.1518 C   0  0  0  0  0  0  0  0  0  0  0  0
    0.7280   -1.1480    2.8146 C   0  0  0  0  0  0  0  0  0  0  0  0
    0.9229   -0.7064    1.5162 C   0  0  0  0  0  0  0  0  0  0  0  0
    5.1502   -0.7073   -2.0454 H   0  0  0  0  0  0  0  0  0  0  0  0
    5.0932   -0.5864   -0.2411 H   0  0  0  0  0  0  0  0  0  0  0  0
    3.9453    1.4801   -2.0181 H   0  0  0  0  0  0  0  0  0  0  0  0
    5.5998    1.5199   -1.4383 H   0  0  0  0  0  0  0  0  0  0  0  0
    4.1698    3.9510    2.2418 H   0  0  0  0  0  0  0  0  0  0  0  0
    1.5511    4.0660    4.9628 H   0  0  0  0  0  0  0  0  0  0  0  0
    4.3724    5.0611    4.3202 H   0  0  0  0  0  0  0  0  0  0  0  0
    3.9109    4.8324    5.8388 H   0  0  0  0  0  0  0  0  0  0  0  0
    3.2967    9.6281    4.9354 H   0  0  0  0  0  0  0  0  0  0  0  0
    0.0691    7.8036    4.8920 H   0  0  0  0  0  0  0  0  0  0  0  0
   -1.5272    8.5283    3.0653 H   0  0  0  0  0  0  0  0  0  0  0  0
    2.3086   10.8231    2.9936 H   0  0  0  0  0  0  0  0  0  0  0  0
    0.9988    6.3537    3.6816 H   0  0  0  0  0  0  0  0  0  0  0  0
    2.2325    6.2184    2.6642 H   0  0  0  0  0  0  0  0  0  0  0  0
    4.2241   -1.2566    1.2687 H   0  0  0  0  0  0  0  0  0  0  0  0
    3.8832   -2.0447    3.5331 H   0  0  0  0  0  0  0  0  0  0  0  0
    4.8433   -1.3722   11.4607 H   0  0  0  0  0  0  0  0  0  0  0  0
    3.7533   -0.8440   13.5557 H   0  0  0  0  0  0  0  0  0  0  0  0
    1.6332    0.3311   13.5712 H   0  0  0  0  0  0  0  0  0  0  0  0
    0.6384    1.0337   11.4760 H   0  0  0  0  0  0  0  0  0  0  0  0
    1.6527    0.3921    9.3819 H   0  0  0  0  0  0  0  0  0  0  0  0
    6.4571   -2.6608    8.1641 H   0  0  0  0  0  0  0  0  0  0  0  0
    5.8009   -5.2080    7.7376 H   0  0  0  0  0  0  0  0  0  0  0  0
    3.2850   -3.6100   10.4496 H   0  0  0  0  0  0  0  0  0  0  0  0
    2.2061   -6.2787    5.9324 H   0  0  0  0  0  0  0  0  0  0  0  0
    3.0322   -8.0468    4.4946 H   0  0  0  0  0  0  0  0  0  0  0  0
    4.6921   -9.6096    5.3250 H   0  0  0  0  0  0  0  0  0  0  0  0
    5.4955   -9.4205    7.6054 H   0  0  0  0  0  0  0  0  0  0  0  0
    4.6277   -7.6953    9.0653 H   0  0  0  0  0  0  0  0  0  0  0  0
   -2.7350   -7.2319    8.4919 H   0  0  0  0  0  0  0  0  0  0  0  0
   -5.1000   -7.1615    9.0240 H   0  0  0  0  0  0  0  0  0  0  0  0
   -6.5446   -5.5194    7.9759 H   0  0  0  0  0  0  0  0  0  0  0  0
   -5.6316   -3.9911    6.3288 H   0  0  0  0  0  0  0  0  0  0  0  0
   -3.2726   -4.0513    5.7974 H   0  0  0  0  0  0  0  0  0  0  0  0
   -1.7449   -5.3170    4.1026 H   0  0  0  0  0  0  0  0  0  0  0  0
    0.0125   -3.8898    2.9232 H   0  0  0  0  0  0  0  0  0  0  0  0
    1.0612   -4.0751    6.8952 H   0  0  0  0  0  0  0  0  0  0  0  0
   -1.1812   -3.8243    9.4183 H   0  0  0  0  0  0  0  0  0  0  0  0
    1.3093   -3.7510   10.0913 H   0  0  0  0  0  0  0  0  0  0  0  0
    2.7037    1.0525    7.6116 H   0  0  0  0  0  0  0  0  0  0  0  0
    1.2356    0.3860    5.6071 H   0  0  0  0  0  0  0  0  0  0  0  0
   -0.1966   -1.0581    3.2640 H   0  0  0  0  0  0  0  0  0  0  0  0
    0.1365   -0.2983    0.9870 H   0  0  0  0  0  0  0  0  0  0  0  0
  1  2  2  0  0  0  0
  2  3  1  0  0  0  0
  2 26  1  0  0  0  0
  3  4  1  0  0  0  0
  4  5  1  0  0  0  0
  4 74  1  0  0  0  0
  4 75  1  0  0  0  0
  5  6  1  0  0  0  0
  5 76  1  0  0  0  0
  5 77  1  0  0  0  0
  6  7  1  0  0  0  0
  7  8  2  0  0  0  0
  7  9  1  0  0  0  0
  9 10  2  0  0  0  0
  9 25  1  0  0  0  0
 10 11  1  0  0  0  0
 10 78  1  0  0  0  0
 11 12  1  0  0  0  0
 11 24  1  0  0  0  0
 12 13  1  0  0  0  0
 12 23  1  0  0  0  0
 12 79  1  0  0  0  0
 13 14  1  0  0  0  0
 13 80  1  0  0  0  0
 13 81  1  0  0  0  0
 14 15  1  0  0  0  0
 14 23  1  0  0  0  0
 15 16  2  0  0  0  0
 15 17  1  0  0  0  0
 17 18  1  0  0  0  0
 17 82  1  0  0  0  0
 18 19  1  0  0  0  0
 18 22  2  0  0  0  0
 19 20  2  0  0  0  0
 19 83  1  0  0  0  0
 20 21  1  0  0  0  0
 20 84  1  0  0  0  0
 21 22  1  0  0  0  0
 22 85  1  0  0  0  0
 23 86  1  0  0  0  0
 23 87  1  0  0  0  0
 24 25  2  0  0  0  0
 26 27  1  0  0  0  0
 26 73  2  0  0  0  0
 27 28  2  0  0  0  0
 27 88  1  0  0  0  0
 28 29  1  0  0  0  0
 28 89  1  0  0  0  0
 29 30  1  0  0  0  0
 29 72  2  0  0  0  0
 30 31  1  0  0  0  0
 30 66  2  0  0  0  0
 31 32  2  0  0  0  0
 31 71  1  0  0  0  0
 32 33  1  0  0  0  0
 33 34  2  0  0  0  0
 33 70  1  0  0  0  0
 34 35  1  0  0  0  0
 34 41  1  0  0  0  0
 35 36  1  0  0  0  0
 35 40  2  0  0  0  0
 36 37  2  0  0  0  0
 36 90  1  0  0  0  0
 37 38  1  0  0  0  0
 37 91  1  0  0  0  0
 38 39  2  0  0  0  0
 38 92  1  0  0  0  0
 39 40  1  0  0  0  0
 39 93  1  0  0  0  0
 40 94  1  0  0  0  0
 41 42  2  0  0  0  0
 41 45  1  0  0  0  0
 42 43  1  0  0  0  0
 42 95  1  0  0  0  0
 43 44  2  0  0  0  0
 43 96  1  0  0  0  0
 44 45  1  0  0  0  0
 44 46  1  0  0  0  0
 45 97  1  0  0  0  0
 46 47  1  0  0  0  0
 46 53  2  0  0  0  0
 47 48  1  0  0  0  0
 47 52  2  0  0  0  0
 48 49  2  0  0  0  0
 48 98  1  0  0  0  0
 49 50  1  0  0  0  0
 49 99  1  0  0  0  0
 50 51  2  0  0  0  0
 50100  1  0  0  0  0
 51 52  1  0  0  0  0
 51101  1  0  0  0  0
 52102  1  0  0  0  0
 53 54  1  0  0  0  0
 53 69  1  0  0  0  0
 54 55  2  0  0  0  0
 55 56  1  0  0  0  0
 55 68  1  0  0  0  0
 56 57  1  0  0  0  0
 56 63  2  0  0  0  0
 57 58  1  0  0  0  0
 57 62  2  0  0  0  0
 58 59  2  0  0  0  0
 58103  1  0  0  0  0
 59 60  1  0  0  0  0
 59104  1  0  0  0  0
 60 61  2  0  0  0  0
 60105  1  0  0  0  0
 61 62  1  0  0  0  0
 61106  1  0  0  0  0
 62107  1  0  0  0  0
 63 64  1  0  0  0  0
 63 67  1  0  0  0  0
 64 65  2  0  0  0  0
 64108  1  0  0  0  0
 65 66  1  0  0  0  0
 65109  1  0  0  0  0
 66 67  1  0  0  0  0
 67110  1  0  0  0  0
 68 69  2  0  0  0  0
 68111  1  0  0  0  0
 69112  1  0  0  0  0
 70 71  2  0  0  0  0
 70113  1  0  0  0  0
 71114  1  0  0  0  0
 72 73  1  0  0  0  0
 72115  1  0  0  0  0
 73116  1  0  0  0  0
M  END
$$$$
