2_4_1567
 OpenBabel04152301373D

134144  0  0  1  0  0  0  0  0999 V2000
   -2.9371   -0.7907   -0.6731 C   0  0  0  0  0  0  0  0  0  0  0  0
   -1.4745   -1.2531   -0.6289 C   0  0  2  0  0  0  0  0  0  0  0  0
   -1.1465   -2.3368   -1.6384 C   0  0  0  0  0  0  0  0  0  0  0  0
   -0.1204   -2.9996   -1.6240 O   0  0  0  0  0  0  0  0  0  0  0  0
   -2.0912   -2.4336   -2.6158 O   0  0  0  0  0  0  0  0  0  0  0  0
   -2.1009   -3.6683   -3.3348 C   0  0  0  0  0  0  0  0  0  0  0  0
   -1.1026   -3.9090   -4.4776 C   0  0  0  0  0  0  0  0  0  0  0  0
    0.0710   -3.1369   -4.6218 O   0  0  0  0  0  0  0  0  0  0  0  0
   -0.0124   -1.7214   -4.6544 C   0  0  0  0  0  0  0  0  0  0  0  0
   -0.9832   -1.0354   -5.6226 C   0  0  0  0  0  0  0  0  0  0  0  0
   -2.3458   -1.4796   -5.5121 O   0  0  0  0  0  0  0  0  0  0  0  0
   -2.8147   -2.1377   -6.6013 C   0  0  0  0  0  0  0  0  0  0  0  0
   -2.2197   -2.3816   -7.6352 O   0  0  0  0  0  0  0  0  0  0  0  0
   -4.1494   -2.6942   -6.3198 C   0  0  0  0  0  0  0  0  0  0  0  0
   -4.3242   -4.0806   -6.4336 C   0  0  0  0  0  0  0  0  0  0  0  0
   -5.6006   -4.6309   -6.3559 C   0  0  0  0  0  0  0  0  0  0  0  0
   -6.7083   -3.7875   -6.2102 C   0  0  0  0  0  0  0  0  0  0  0  0
   -8.0630   -4.3172   -6.4876 C   0  0  0  0  0  0  0  0  0  0  0  0
   -8.6238   -4.1445   -7.8732 C   0  0  0  0  0  0  0  0  0  0  0  0
   -9.8019   -4.4693   -8.3394 N   0  0  0  0  0  0  0  0  0  0  0  0
   -9.7959   -4.0825   -9.6741 C   0  0  0  0  0  0  0  0  0  0  0  0
  -10.7732   -4.2211  -10.6004 C   0  0  0  0  0  0  0  0  0  0  0  0
  -10.4952   -3.6900  -11.9785 C   0  0  0  0  0  0  0  0  0  0  0  0
   -9.5861   -4.3273  -12.8380 C   0  0  0  0  0  0  0  0  0  0  0  0
   -9.3269   -3.8036  -14.1067 C   0  0  0  0  0  0  0  0  0  0  0  0
   -9.9991   -2.6619  -14.5415 C   0  0  0  0  0  0  0  0  0  0  0  0
  -10.9246   -2.0365  -13.7076 C   0  0  0  0  0  0  0  0  0  0  0  0
  -11.1643   -2.5413  -12.4286 C   0  0  0  0  0  0  0  0  0  0  0  0
  -12.0598   -4.8032  -10.3326 C   0  0  0  0  0  0  0  0  0  0  0  0
  -13.1218   -4.9867  -11.2002 C   0  0  0  0  0  0  0  0  0  0  0  0
  -14.1854   -5.5347  -10.4755 C   0  0  0  0  0  0  0  0  0  0  0  0
  -13.7633   -5.7492   -9.1728 C   0  0  0  0  0  0  0  0  0  0  0  0
  -12.4603   -5.2894   -9.0979 N   0  0  0  0  0  0  0  0  0  0  0  0
  -14.4964   -6.3263   -8.0757 C   0  0  0  0  0  0  0  0  0  0  0  0
  -15.9018   -6.7891   -8.3416 C   0  0  0  0  0  0  0  0  0  0  0  0
  -17.0090   -6.0993   -7.8247 C   0  0  0  0  0  0  0  0  0  0  0  0
  -18.3055   -6.5401   -8.0996 C   0  0  0  0  0  0  0  0  0  0  0  0
  -18.5077   -7.6490   -8.9211 C   0  0  0  0  0  0  0  0  0  0  0  0
  -17.4160   -8.3267   -9.4609 C   0  0  0  0  0  0  0  0  0  0  0  0
  -16.1191   -7.9065   -9.1636 C   0  0  0  0  0  0  0  0  0  0  0  0
  -14.0041   -6.5158   -6.8266 C   0  0  0  0  0  0  0  0  0  0  0  0
  -12.7413   -6.2180   -6.3278 N   0  0  0  0  0  0  0  0  0  0  0  0
  -12.7588   -6.5793   -5.0670 C   0  0  0  0  0  0  0  0  0  0  0  0
  -11.6535   -6.5202   -4.0452 C   0  0  0  0  0  0  0  0  0  0  0  0
  -11.8852   -6.9853   -2.6524 C   0  0  0  0  0  0  0  0  0  0  0  0
  -12.0667   -8.3474   -2.3702 C   0  0  0  0  0  0  0  0  0  0  0  0
  -12.3277   -8.7707   -1.0644 C   0  0  0  0  0  0  0  0  0  0  0  0
  -12.3780   -7.8429   -0.0250 C   0  0  0  0  0  0  0  0  0  0  0  0
  -12.1779   -6.4896   -0.2890 C   0  0  0  0  0  0  0  0  0  0  0  0
  -11.9459   -6.0606   -1.5973 C   0  0  0  0  0  0  0  0  0  0  0  0
  -10.4563   -6.0130   -4.3966 C   0  0  0  0  0  0  0  0  0  0  0  0
   -9.2921   -5.8815   -3.5222 C   0  0  0  0  0  0  0  0  0  0  0  0
   -8.3104   -5.2465   -4.1868 C   0  0  0  0  0  0  0  0  0  0  0  0
   -8.7702   -4.9601   -5.5439 C   0  0  0  0  0  0  0  0  0  0  0  0
  -10.0374   -5.4830   -5.5915 N   0  0  0  0  0  0  0  0  0  0  0  0
  -14.0485   -7.1225   -4.6160 C   0  0  0  0  0  0  0  0  0  0  0  0
  -14.7575   -7.0996   -5.7361 C   0  0  0  0  0  0  0  0  0  0  0  0
   -8.5098   -3.4763   -9.9373 C   0  0  0  0  0  0  0  0  0  0  0  0
   -7.7326   -3.5207   -8.8665 C   0  0  0  0  0  0  0  0  0  0  0  0
   -6.5199   -2.4052   -6.0252 C   0  0  0  0  0  0  0  0  0  0  0  0
   -5.2367   -1.8549   -6.0777 C   0  0  0  0  0  0  0  0  0  0  0  0
   -0.9746   -1.5862    0.8212 C   0  0  2  0  0  0  0  0  0  0  0  0
    0.5180   -1.1992    0.9285 C   0  0  0  0  0  0  0  0  0  0  0  0
   -1.3005   -2.8323    1.5413 N   0  3  0  0  0  0  0  0  0  0  0  0
   -2.5922   -3.4936    1.3569 C   0  0  0  0  0  0  0  0  0  0  0  0
   -2.6176   -4.6352    0.3160 C   0  0  0  0  0  0  0  0  0  0  0  0
   -1.4576   -5.5455    0.4033 N   0  0  0  0  0  0  0  0  0  0  0  0
   -1.4937   -6.6230   -0.4968 C   0  0  0  0  0  0  0  0  0  0  0  0
   -0.7610   -6.5922   -1.6987 C   0  0  0  0  0  0  0  0  0  0  0  0
   -0.9100   -7.5811   -2.6791 C   0  0  0  0  0  0  0  0  0  0  0  0
   -1.7694   -8.6515   -2.4633 C   0  0  0  0  0  0  0  0  0  0  0  0
   -2.4580   -8.7450   -1.2564 C   0  0  0  0  0  0  0  0  0  0  0  0
   -2.3220   -7.7449   -0.2841 C   0  0  0  0  0  0  0  0  0  0  0  0
   -3.1795   -7.9652    1.2059 Cl  0  0  0  0  0  0  0  0  0  0  0  0
   -0.1482   -4.9647    0.7384 C   0  0  0  0  0  0  0  0  0  0  0  0
   -0.2689   -3.8515    1.7977 C   0  0  0  0  0  0  0  0  0  0  0  0
   -3.2143   -0.5806   -1.6850 H   0  0  0  0  0  0  0  0  0  0  0  0
   -3.0496    0.0938   -0.0815 H   0  0  0  0  0  0  0  0  0  0  0  0
   -3.5672   -1.5628   -0.2836 H   0  0  0  0  0  0  0  0  0  0  0  0
   -0.9054   -0.4025   -0.9412 H   0  0  0  0  0  0  0  0  0  0  0  0
   -3.0796   -3.7715   -3.7549 H   0  0  0  0  0  0  0  0  0  0  0  0
   -1.7998   -4.3812   -2.5959 H   0  0  0  0  0  0  0  0  0  0  0  0
   -1.6537   -3.7887   -5.3868 H   0  0  0  0  0  0  0  0  0  0  0  0
   -0.7083   -4.8728   -4.2318 H   0  0  0  0  0  0  0  0  0  0  0  0
    0.9666   -1.3591   -4.8894 H   0  0  0  0  0  0  0  0  0  0  0  0
   -0.4084   -1.4749   -3.6914 H   0  0  0  0  0  0  0  0  0  0  0  0
   -0.6494   -1.2250   -6.6214 H   0  0  0  0  0  0  0  0  0  0  0  0
   -0.9801    0.0048   -5.3719 H   0  0  0  0  0  0  0  0  0  0  0  0
   -3.5061   -4.6936   -6.5751 H   0  0  0  0  0  0  0  0  0  0  0  0
   -5.7293   -5.6536   -6.4054 H   0  0  0  0  0  0  0  0  0  0  0  0
   -9.1065   -5.1878  -12.5305 H   0  0  0  0  0  0  0  0  0  0  0  0
   -8.6374   -4.2620  -14.7227 H   0  0  0  0  0  0  0  0  0  0  0  0
   -9.8112   -2.2796  -15.4815 H   0  0  0  0  0  0  0  0  0  0  0  0
  -11.4325   -1.2003  -14.0359 H   0  0  0  0  0  0  0  0  0  0  0  0
  -11.8390   -2.0661  -11.8089 H   0  0  0  0  0  0  0  0  0  0  0  0
  -13.1282   -4.7589  -12.2067 H   0  0  0  0  0  0  0  0  0  0  0  0
  -15.1250   -5.7438  -10.8476 H   0  0  0  0  0  0  0  0  0  0  0  0
  -11.9008   -5.3052   -8.2880 H   0  0  0  0  0  0  0  0  0  0  0  0
  -16.8647   -5.2622   -7.2386 H   0  0  0  0  0  0  0  0  0  0  0  0
  -19.1150   -6.0446   -7.6943 H   0  0  0  0  0  0  0  0  0  0  0  0
  -19.4668   -7.9680   -9.1295 H   0  0  0  0  0  0  0  0  0  0  0  0
  -17.5667   -9.1386  -10.0799 H   0  0  0  0  0  0  0  0  0  0  0  0
  -15.3129   -8.4213   -9.5511 H   0  0  0  0  0  0  0  0  0  0  0  0
  -12.0071   -9.0412   -3.1318 H   0  0  0  0  0  0  0  0  0  0  0  0
  -12.4835   -9.7720   -0.8690 H   0  0  0  0  0  0  0  0  0  0  0  0
  -12.5634   -8.1585    0.9399 H   0  0  0  0  0  0  0  0  0  0  0  0
  -12.2012   -5.8044    0.4823 H   0  0  0  0  0  0  0  0  0  0  0  0
  -11.8179   -5.0550   -1.7906 H   0  0  0  0  0  0  0  0  0  0  0  0
   -9.2330   -6.2218   -2.5497 H   0  0  0  0  0  0  0  0  0  0  0  0
   -7.3847   -5.0018   -3.8017 H   0  0  0  0  0  0  0  0  0  0  0  0
  -10.5929   -5.4786   -6.4043 H   0  0  0  0  0  0  0  0  0  0  0  0
  -14.3285   -7.4387   -3.6744 H   0  0  0  0  0  0  0  0  0  0  0  0
  -15.7235   -7.4529   -5.8202 H   0  0  0  0  0  0  0  0  0  0  0  0
   -8.2338   -3.0630  -10.8418 H   0  0  0  0  0  0  0  0  0  0  0  0
   -6.7573   -3.2017   -8.7564 H   0  0  0  0  0  0  0  0  0  0  0  0
   -7.3335   -1.7950   -5.8499 H   0  0  0  0  0  0  0  0  0  0  0  0
   -5.0955   -0.8420   -5.9393 H   0  0  0  0  0  0  0  0  0  0  0  0
   -1.6458   -0.9850    1.3982 H   0  0  0  0  0  0  0  0  0  0  0  0
    1.1016   -1.8565    0.3183 H   0  0  0  0  0  0  0  0  0  0  0  0
    0.8356   -1.2820    1.9469 H   0  0  0  0  0  0  0  0  0  0  0  0
    0.6500   -0.1913    0.5945 H   0  0  0  0  0  0  0  0  0  0  0  0
   -1.3738   -2.2595    2.3821 H   0  0  0  0  0  0  0  0  0  0  0  0
   -3.3001   -2.7525    1.0494 H   0  0  0  0  0  0  0  0  0  0  0  0
   -2.8229   -3.9504    2.2966 H   0  0  0  0  0  0  0  0  0  0  0  0
   -2.6328   -4.2005   -0.6616 H   0  0  0  0  0  0  0  0  0  0  0  0
   -3.4902   -5.2212    0.5164 H   0  0  0  0  0  0  0  0  0  0  0  0
   -0.0961   -5.8199   -1.8616 H   0  0  0  0  0  0  0  0  0  0  0  0
   -0.3810   -7.5148   -3.5627 H   0  0  0  0  0  0  0  0  0  0  0  0
   -1.8964   -9.3715   -3.1916 H   0  0  0  0  0  0  0  0  0  0  0  0
   -3.0717   -9.5551   -1.0771 H   0  0  0  0  0  0  0  0  0  0  0  0
    0.2851   -4.5527   -0.1490 H   0  0  0  0  0  0  0  0  0  0  0  0
    0.4665   -5.7420    1.1419 H   0  0  0  0  0  0  0  0  0  0  0  0
   -0.4908   -4.3143    2.7366 H   0  0  0  0  0  0  0  0  0  0  0  0
    0.6655   -3.3304    1.7796 H   0  0  0  0  0  0  0  0  0  0  0  0
  1 77  1  0  0  0  0
  1 78  1  0  0  0  0
  1 79  1  0  0  0  0
  2  3  1  0  0  0  0
  2  1  1  0  0  0  0
  2 80  1  6  0  0  0
  3  4  2  0  0  0  0
  3  5  1  0  0  0  0
  5  6  1  0  0  0  0
  6  7  1  0  0  0  0
  6 81  1  0  0  0  0
  6 82  1  0  0  0  0
  7  8  1  0  0  0  0
  7 83  1  0  0  0  0
  7 84  1  0  0  0  0
  8  9  1  0  0  0  0
  9 10  1  0  0  0  0
  9 85  1  0  0  0  0
  9 86  1  0  0  0  0
 10 11  1  0  0  0  0
 10 87  1  0  0  0  0
 10 88  1  0  0  0  0
 11 12  1  0  0  0  0
 12 13  2  0  0  0  0
 12 14  1  0  0  0  0
 14 15  1  0  0  0  0
 14 61  2  0  0  0  0
 15 16  2  0  0  0  0
 15 89  1  0  0  0  0
 16 17  1  0  0  0  0
 16 90  1  0  0  0  0
 17 18  1  0  0  0  0
 17 60  2  0  0  0  0
 18 19  1  0  0  0  0
 18 54  2  0  0  0  0
 19 20  2  0  0  0  0
 19 59  1  0  0  0  0
 20 21  1  0  0  0  0
 21 22  2  0  0  0  0
 21 58  1  0  0  0  0
 22 23  1  0  0  0  0
 22 29  1  0  0  0  0
 23 24  1  0  0  0  0
 23 28  2  0  0  0  0
 24 25  2  0  0  0  0
 24 91  1  0  0  0  0
 25 26  1  0  0  0  0
 25 92  1  0  0  0  0
 26 27  2  0  0  0  0
 26 93  1  0  0  0  0
 27 28  1  0  0  0  0
 27 94  1  0  0  0  0
 28 95  1  0  0  0  0
 29 30  2  0  0  0  0
 29 33  1  0  0  0  0
 30 31  1  0  0  0  0
 30 96  1  0  0  0  0
 31 32  2  0  0  0  0
 31 97  1  0  0  0  0
 32 33  1  0  0  0  0
 32 34  1  0  0  0  0
 33 98  1  0  0  0  0
 34 35  1  0  0  0  0
 34 41  2  0  0  0  0
 35 36  1  0  0  0  0
 35 40  2  0  0  0  0
 36 37  2  0  0  0  0
 36 99  1  0  0  0  0
 37 38  1  0  0  0  0
 37100  1  0  0  0  0
 38 39  2  0  0  0  0
 38101  1  0  0  0  0
 39 40  1  0  0  0  0
 39102  1  0  0  0  0
 40103  1  0  0  0  0
 41 42  1  0  0  0  0
 41 57  1  0  0  0  0
 42 43  2  0  0  0  0
 43 44  1  0  0  0  0
 43 56  1  0  0  0  0
 44 45  1  0  0  0  0
 44 51  2  0  0  0  0
 45 46  1  0  0  0  0
 45 50  2  0  0  0  0
 46 47  2  0  0  0  0
 46104  1  0  0  0  0
 47 48  1  0  0  0  0
 47105  1  0  0  0  0
 48 49  2  0  0  0  0
 48106  1  0  0  0  0
 49 50  1  0  0  0  0
 49107  1  0  0  0  0
 50108  1  0  0  0  0
 51 52  1  0  0  0  0
 51 55  1  0  0  0  0
 52 53  2  0  0  0  0
 52109  1  0  0  0  0
 53 54  1  0  0  0  0
 53110  1  0  0  0  0
 54 55  1  0  0  0  0
 55111  1  0  0  0  0
 56 57  2  0  0  0  0
 56112  1  0  0  0  0
 57113  1  0  0  0  0
 58 59  2  0  0  0  0
 58114  1  0  0  0  0
 59115  1  0  0  0  0
 60 61  1  0  0  0  0
 60116  1  0  0  0  0
 61117  1  0  0  0  0
 62 64  1  0  0  0  0
 62 63  1  0  0  0  0
 62  2  1  0  0  0  0
 62118  1  1  0  0  0
 63119  1  0  0  0  0
 63120  1  0  0  0  0
 63121  1  0  0  0  0
 64 65  1  0  0  0  0
 64 76  1  0  0  0  0
 64122  1  0  0  0  0
 65 66  1  0  0  0  0
 65123  1  0  0  0  0
 65124  1  0  0  0  0
 66 67  1  0  0  0  0
 66125  1  0  0  0  0
 66126  1  0  0  0  0
 67 68  1  0  0  0  0
 67 75  1  0  0  0  0
 68 69  1  0  0  0  0
 68 73  2  0  0  0  0
 69 70  2  0  0  0  0
 69127  1  0  0  0  0
 70 71  1  0  0  0  0
 70128  1  0  0  0  0
 71 72  2  0  0  0  0
 71129  1  0  0  0  0
 72 73  1  0  0  0  0
 72130  1  0  0  0  0
 73 74  1  0  0  0  0
 75 76  1  0  0  0  0
 75131  1  0  0  0  0
 75132  1  0  0  0  0
 76133  1  0  0  0  0
 76134  1  0  0  0  0
M  CHG  1  64   1
M  END
$$$$
