2_4_2148
 OpenBabel04152301373D

130140  0  0  1  0  0  0  0  0999 V2000
    1.1688   -0.2147    0.0697 O   0  0  0  0  0  0  0  0  0  0  0  0
    2.3029    0.0858   -0.2884 C   0  0  0  0  0  0  0  0  0  0  0  0
    3.3264    0.7618    0.6281 C   0  0  0  0  0  0  0  0  0  0  0  0
    4.2308   -0.1462    1.3591 N   0  3  2  0  0  0  0  0  0  0  0  0
    5.0366   -1.0395    0.5279 C   0  0  0  0  0  0  0  0  0  0  0  0
    4.2785   -2.3551    0.4550 C   0  0  0  0  0  0  0  0  0  0  0  0
    3.4145   -2.3891    1.7079 C   0  0  0  0  0  0  0  0  0  0  0  0
    3.6026   -1.0250    2.3761 C   0  0  2  0  0  0  0  0  0  0  0  0
    2.4153   -0.3971    3.1151 C   0  0  0  0  0  0  0  0  0  0  0  0
    2.5276    0.5409    3.8969 O   0  0  0  0  0  0  0  0  0  0  0  0
    1.2444   -0.9996    2.7930 O   0  0  0  0  0  0  0  0  0  0  0  0
    0.0793   -0.5735    3.5091 C   0  0  0  0  0  0  0  0  0  0  0  0
   -0.7025   -1.7943    3.9935 C   0  0  0  0  0  0  0  0  0  0  0  0
   -0.0322   -2.6195    4.9486 O   0  0  0  0  0  0  0  0  0  0  0  0
    1.0245   -3.4549    4.4751 C   0  0  0  0  0  0  0  0  0  0  0  0
    0.6059   -4.7169    3.7106 C   0  0  0  0  0  0  0  0  0  0  0  0
   -0.0440   -4.4232    2.4598 O   0  0  0  0  0  0  0  0  0  0  0  0
   -1.3459   -4.7862    2.4000 C   0  0  0  0  0  0  0  0  0  0  0  0
   -1.9898   -5.3853    3.2543 O   0  0  0  0  0  0  0  0  0  0  0  0
   -1.9882   -4.2373    1.1940 C   0  0  0  0  0  0  0  0  0  0  0  0
   -3.1317   -3.4483    1.3721 C   0  0  0  0  0  0  0  0  0  0  0  0
   -3.8808   -3.0446    0.2690 C   0  0  0  0  0  0  0  0  0  0  0  0
   -3.5018   -3.4460   -1.0187 C   0  0  0  0  0  0  0  0  0  0  0  0
   -4.4243   -3.2107   -2.1561 C   0  0  0  0  0  0  0  0  0  0  0  0
   -5.3245   -4.3259   -2.6147 C   0  0  0  0  0  0  0  0  0  0  0  0
   -6.1992   -4.3382   -3.5889 N   0  0  0  0  0  0  0  0  0  0  0  0
   -6.7515   -5.6132   -3.5835 C   0  0  0  0  0  0  0  0  0  0  0  0
   -7.7214   -6.1216   -4.3806 C   0  0  0  0  0  0  0  0  0  0  0  0
   -8.1164   -7.5539   -4.1577 C   0  0  0  0  0  0  0  0  0  0  0  0
   -8.8782   -7.9345   -3.0420 C   0  0  0  0  0  0  0  0  0  0  0  0
   -9.2364   -9.2715   -2.8548 C   0  0  0  0  0  0  0  0  0  0  0  0
   -8.8648  -10.2326   -3.7946 C   0  0  0  0  0  0  0  0  0  0  0  0
   -8.1284   -9.8620   -4.9187 C   0  0  0  0  0  0  0  0  0  0  0  0
   -7.7480   -8.5307   -5.0958 C   0  0  0  0  0  0  0  0  0  0  0  0
   -8.3705   -5.3938   -5.4377 C   0  0  0  0  0  0  0  0  0  0  0  0
   -9.3742   -5.8219   -6.2897 C   0  0  0  0  0  0  0  0  0  0  0  0
   -9.6502   -4.7898   -7.1929 C   0  0  0  0  0  0  0  0  0  0  0  0
   -8.8555   -3.7024   -6.8682 C   0  0  0  0  0  0  0  0  0  0  0  0
   -8.0745   -4.0875   -5.7917 N   0  0  0  0  0  0  0  0  0  0  0  0
   -8.8050   -2.4083   -7.4966 C   0  0  0  0  0  0  0  0  0  0  0  0
   -9.7234   -2.1548   -8.6586 C   0  0  0  0  0  0  0  0  0  0  0  0
   -9.2335   -2.0817   -9.9715 C   0  0  0  0  0  0  0  0  0  0  0  0
  -10.1068   -1.8603  -11.0388 C   0  0  0  0  0  0  0  0  0  0  0  0
  -11.4772   -1.7424  -10.8080 C   0  0  0  0  0  0  0  0  0  0  0  0
  -11.9775   -1.8361   -9.5103 C   0  0  0  0  0  0  0  0  0  0  0  0
  -11.1046   -2.0315   -8.4391 C   0  0  0  0  0  0  0  0  0  0  0  0
   -8.0078   -1.3869   -7.0990 C   0  0  0  0  0  0  0  0  0  0  0  0
   -7.0993   -1.3462   -6.0482 N   0  0  0  0  0  0  0  0  0  0  0  0
   -6.5716   -0.1465   -6.0774 C   0  0  0  0  0  0  0  0  0  0  0  0
   -5.5520    0.4656   -5.1547 C   0  0  0  0  0  0  0  0  0  0  0  0
   -5.1010    1.8667   -5.3563 C   0  0  0  0  0  0  0  0  0  0  0  0
   -5.9618    2.9416   -5.0892 C   0  0  0  0  0  0  0  0  0  0  0  0
   -5.5455    4.2545   -5.3225 C   0  0  0  0  0  0  0  0  0  0  0  0
   -4.2586    4.5064   -5.7963 C   0  0  0  0  0  0  0  0  0  0  0  0
   -3.3877    3.4474   -6.0461 C   0  0  0  0  0  0  0  0  0  0  0  0
   -3.8098    2.1330   -5.8385 C   0  0  0  0  0  0  0  0  0  0  0  0
   -5.0332   -0.2707   -4.1533 C   0  0  0  0  0  0  0  0  0  0  0  0
   -4.0419    0.1897   -3.1828 C   0  0  0  0  0  0  0  0  0  0  0  0
   -3.7106   -0.8301   -2.3717 C   0  0  0  0  0  0  0  0  0  0  0  0
   -4.4919   -2.0063   -2.7501 C   0  0  0  0  0  0  0  0  0  0  0  0
   -5.2626   -1.5776   -3.8019 N   0  0  0  0  0  0  0  0  0  0  0  0
   -7.0697    0.7028   -7.1700 C   0  0  0  0  0  0  0  0  0  0  0  0
   -7.9689   -0.0884   -7.7389 C   0  0  0  0  0  0  0  0  0  0  0  0
   -6.0954   -6.3547   -2.5280 C   0  0  0  0  0  0  0  0  0  0  0  0
   -5.2271   -5.5952   -1.8759 C   0  0  0  0  0  0  0  0  0  0  0  0
   -2.3182   -4.1859   -1.1954 C   0  0  0  0  0  0  0  0  0  0  0  0
   -1.5589   -4.5849   -0.0886 C   0  0  0  0  0  0  0  0  0  0  0  0
    2.7692   -0.1426   -1.5599 N   0  0  0  0  0  0  0  0  0  0  0  0
    1.9609   -0.7280   -2.6015 C   0  0  0  0  0  0  0  0  0  0  0  0
    2.2953   -0.0407   -3.8980 C   0  0  0  0  0  0  0  0  0  0  0  0
    3.0826   -0.6712   -4.8703 C   0  0  0  0  0  0  0  0  0  0  0  0
    3.4711    0.0246   -6.0171 C   0  0  0  0  0  0  0  0  0  0  0  0
    3.0789    1.3512   -6.1913 C   0  0  0  0  0  0  0  0  0  0  0  0
    3.5859    2.2160   -7.5889 Cl  0  0  0  0  0  0  0  0  0  0  0  0
    2.2909    1.9872   -5.2354 C   0  0  0  0  0  0  0  0  0  0  0  0
    1.8975    1.2918   -4.0931 C   0  0  0  0  0  0  0  0  0  0  0  0
    2.7891    1.3412    1.3496 H   0  0  0  0  0  0  0  0  0  0  0  0
    3.9543    1.3423   -0.0151 H   0  0  0  0  0  0  0  0  0  0  0  0
    4.8125    0.5583    1.8127 H   0  0  0  0  0  0  0  0  0  0  0  0
    5.9986   -1.1905    0.9713 H   0  0  0  0  0  0  0  0  0  0  0  0
    5.1937   -0.6270   -0.4468 H   0  0  0  0  0  0  0  0  0  0  0  0
    4.9595   -3.1804    0.4465 H   0  0  0  0  0  0  0  0  0  0  0  0
    3.6920   -2.4293   -0.4369 H   0  0  0  0  0  0  0  0  0  0  0  0
    3.7359   -3.1726    2.3619 H   0  0  0  0  0  0  0  0  0  0  0  0
    2.3872   -2.5771    1.4749 H   0  0  0  0  0  0  0  0  0  0  0  0
    4.2334   -1.1723    3.2278 H   0  0  0  0  0  0  0  0  0  0  0  0
   -0.5406    0.0126    2.8633 H   0  0  0  0  0  0  0  0  0  0  0  0
    0.3767    0.0143    4.3522 H   0  0  0  0  0  0  0  0  0  0  0  0
   -0.9313   -2.3981    3.1403 H   0  0  0  0  0  0  0  0  0  0  0  0
   -1.5651   -1.4084    4.4954 H   0  0  0  0  0  0  0  0  0  0  0  0
    1.6000   -3.7636    5.3227 H   0  0  0  0  0  0  0  0  0  0  0  0
    1.5623   -2.8592    3.7674 H   0  0  0  0  0  0  0  0  0  0  0  0
   -0.0685   -5.2789    4.3223 H   0  0  0  0  0  0  0  0  0  0  0  0
    1.4955   -5.2686    3.4890 H   0  0  0  0  0  0  0  0  0  0  0  0
   -3.4198   -3.1656    2.3219 H   0  0  0  0  0  0  0  0  0  0  0  0
   -4.7142   -2.4503    0.4003 H   0  0  0  0  0  0  0  0  0  0  0  0
   -9.1753   -7.2227   -2.3563 H   0  0  0  0  0  0  0  0  0  0  0  0
   -9.7766   -9.5484   -2.0202 H   0  0  0  0  0  0  0  0  0  0  0  0
   -9.1352  -11.2191   -3.6577 H   0  0  0  0  0  0  0  0  0  0  0  0
   -7.8645  -10.5718   -5.6198 H   0  0  0  0  0  0  0  0  0  0  0  0
   -7.1917   -8.2627   -5.9227 H   0  0  0  0  0  0  0  0  0  0  0  0
   -9.8385   -6.7431   -6.2631 H   0  0  0  0  0  0  0  0  0  0  0  0
  -10.3297   -4.8313   -7.9685 H   0  0  0  0  0  0  0  0  0  0  0  0
   -7.4079   -3.5177   -5.3443 H   0  0  0  0  0  0  0  0  0  0  0  0
   -8.2229   -2.1921  -10.1493 H   0  0  0  0  0  0  0  0  0  0  0  0
   -9.7376   -1.7839  -11.9994 H   0  0  0  0  0  0  0  0  0  0  0  0
  -12.1215   -1.5856  -11.5988 H   0  0  0  0  0  0  0  0  0  0  0  0
  -12.9929   -1.7610   -9.3418 H   0  0  0  0  0  0  0  0  0  0  0  0
  -11.4772   -2.0858   -7.4783 H   0  0  0  0  0  0  0  0  0  0  0  0
   -6.9079    2.7615   -4.7183 H   0  0  0  0  0  0  0  0  0  0  0  0
   -6.1915    5.0392   -5.1439 H   0  0  0  0  0  0  0  0  0  0  0  0
   -3.9509    5.4774   -5.9621 H   0  0  0  0  0  0  0  0  0  0  0  0
   -2.4309    3.6348   -6.3845 H   0  0  0  0  0  0  0  0  0  0  0  0
   -3.1676    1.3510   -6.0411 H   0  0  0  0  0  0  0  0  0  0  0  0
   -3.6573    1.1458   -3.1288 H   0  0  0  0  0  0  0  0  0  0  0  0
   -3.0183   -0.7893   -1.6074 H   0  0  0  0  0  0  0  0  0  0  0  0
   -5.9173   -2.1525   -4.2604 H   0  0  0  0  0  0  0  0  0  0  0  0
   -6.7921    1.6630   -7.4267 H   0  0  0  0  0  0  0  0  0  0  0  0
   -8.5647    0.1860   -8.5356 H   0  0  0  0  0  0  0  0  0  0  0  0
   -6.2799   -7.3467   -2.3112 H   0  0  0  0  0  0  0  0  0  0  0  0
   -4.6371   -5.8317   -1.0629 H   0  0  0  0  0  0  0  0  0  0  0  0
   -2.0075   -4.4362   -2.1472 H   0  0  0  0  0  0  0  0  0  0  0  0
   -0.6921   -5.1295   -0.2192 H   0  0  0  0  0  0  0  0  0  0  0  0
    3.6986    0.1048   -1.7703 H   0  0  0  0  0  0  0  0  0  0  0  0
    0.9240   -0.5909   -2.3757 H   0  0  0  0  0  0  0  0  0  0  0  0
    2.1584   -1.7769   -2.6774 H   0  0  0  0  0  0  0  0  0  0  0  0
    3.3760   -1.6518   -4.7388 H   0  0  0  0  0  0  0  0  0  0  0  0
    4.0476   -0.4424   -6.7345 H   0  0  0  0  0  0  0  0  0  0  0  0
    1.9998    2.9678   -5.3719 H   0  0  0  0  0  0  0  0  0  0  0  0
    1.3096    1.7597   -3.3856 H   0  0  0  0  0  0  0  0  0  0  0  0
  1  2  2  0  0  0  0
  2  3  1  0  0  0  0
  2 68  1  0  0  0  0
  3  4  1  0  0  0  0
  3 77  1  0  0  0  0
  3 78  1  0  0  0  0
  4  5  1  0  0  0  0
  4  8  1  0  0  0  0
  4 79  1  1  0  0  0
  5  6  1  0  0  0  0
  5 80  1  0  0  0  0
  5 81  1  0  0  0  0
  6  7  1  0  0  0  0
  6 82  1  0  0  0  0
  6 83  1  0  0  0  0
  7  8  1  0  0  0  0
  7 84  1  0  0  0  0
  7 85  1  0  0  0  0
  8  9  1  0  0  0  0
  8 86  1  1  0  0  0
  9 10  2  0  0  0  0
  9 11  1  0  0  0  0
 11 12  1  0  0  0  0
 12 13  1  0  0  0  0
 12 87  1  0  0  0  0
 12 88  1  0  0  0  0
 13 14  1  0  0  0  0
 13 89  1  0  0  0  0
 13 90  1  0  0  0  0
 14 15  1  0  0  0  0
 15 16  1  0  0  0  0
 15 91  1  0  0  0  0
 15 92  1  0  0  0  0
 16 17  1  0  0  0  0
 16 93  1  0  0  0  0
 16 94  1  0  0  0  0
 17 18  1  0  0  0  0
 18 19  2  0  0  0  0
 18 20  1  0  0  0  0
 20 21  1  0  0  0  0
 20 67  2  0  0  0  0
 21 22  2  0  0  0  0
 21 95  1  0  0  0  0
 22 23  1  0  0  0  0
 22 96  1  0  0  0  0
 23 24  1  0  0  0  0
 23 66  2  0  0  0  0
 24 25  1  0  0  0  0
 24 60  2  0  0  0  0
 25 26  2  0  0  0  0
 25 65  1  0  0  0  0
 26 27  1  0  0  0  0
 27 28  2  0  0  0  0
 27 64  1  0  0  0  0
 28 29  1  0  0  0  0
 28 35  1  0  0  0  0
 29 30  1  0  0  0  0
 29 34  2  0  0  0  0
 30 31  2  0  0  0  0
 30 97  1  0  0  0  0
 31 32  1  0  0  0  0
 31 98  1  0  0  0  0
 32 33  2  0  0  0  0
 32 99  1  0  0  0  0
 33 34  1  0  0  0  0
 33100  1  0  0  0  0
 34101  1  0  0  0  0
 35 36  2  0  0  0  0
 35 39  1  0  0  0  0
 36 37  1  0  0  0  0
 36102  1  0  0  0  0
 37 38  2  0  0  0  0
 37103  1  0  0  0  0
 38 39  1  0  0  0  0
 38 40  1  0  0  0  0
 39104  1  0  0  0  0
 40 41  1  0  0  0  0
 40 47  2  0  0  0  0
 41 42  1  0  0  0  0
 41 46  2  0  0  0  0
 42 43  2  0  0  0  0
 42105  1  0  0  0  0
 43 44  1  0  0  0  0
 43106  1  0  0  0  0
 44 45  2  0  0  0  0
 44107  1  0  0  0  0
 45 46  1  0  0  0  0
 45108  1  0  0  0  0
 46109  1  0  0  0  0
 47 48  1  0  0  0  0
 47 63  1  0  0  0  0
 48 49  2  0  0  0  0
 49 50  1  0  0  0  0
 49 62  1  0  0  0  0
 50 51  1  0  0  0  0
 50 57  2  0  0  0  0
 51 52  1  0  0  0  0
 51 56  2  0  0  0  0
 52 53  2  0  0  0  0
 52110  1  0  0  0  0
 53 54  1  0  0  0  0
 53111  1  0  0  0  0
 54 55  2  0  0  0  0
 54112  1  0  0  0  0
 55 56  1  0  0  0  0
 55113  1  0  0  0  0
 56114  1  0  0  0  0
 57 58  1  0  0  0  0
 57 61  1  0  0  0  0
 58 59  2  0  0  0  0
 58115  1  0  0  0  0
 59 60  1  0  0  0  0
 59116  1  0  0  0  0
 60 61  1  0  0  0  0
 61117  1  0  0  0  0
 62 63  2  0  0  0  0
 62118  1  0  0  0  0
 63119  1  0  0  0  0
 64 65  2  0  0  0  0
 64120  1  0  0  0  0
 65121  1  0  0  0  0
 66 67  1  0  0  0  0
 66122  1  0  0  0  0
 67123  1  0  0  0  0
 68 69  1  0  0  0  0
 68124  1  0  0  0  0
 69 70  1  0  0  0  0
 69125  1  0  0  0  0
 69126  1  0  0  0  0
 70 71  1  0  0  0  0
 70 76  2  0  0  0  0
 71 72  2  0  0  0  0
 71127  1  0  0  0  0
 72 73  1  0  0  0  0
 72128  1  0  0  0  0
 73 74  1  0  0  0  0
 73 75  2  0  0  0  0
 75 76  1  0  0  0  0
 75129  1  0  0  0  0
 76130  1  0  0  0  0
M  CHG  1   4   1
M  END
$$$$
