2_4_1808
 OpenBabel04152301363D

128138  0  0  1  0  0  0  0  0999 V2000
    2.0701   -0.2039   -0.6896 C   0  0  0  0  0  0  0  0  0  0  0  0
    1.1131   -0.4723   -1.7038 O   0  0  0  0  0  0  0  0  0  0  0  0
    1.1186    0.4972   -2.7534 C   0  0  0  0  0  0  0  0  0  0  0  0
    0.5832    1.8454   -2.3299 C   0  0  0  0  0  0  0  0  0  0  0  0
    1.1587    3.0206   -2.8240 C   0  0  0  0  0  0  0  0  0  0  0  0
    0.6680    4.2616   -2.4243 C   0  0  0  0  0  0  0  0  0  0  0  0
   -0.3960    4.3341   -1.5243 C   0  0  0  0  0  0  0  0  0  0  0  0
   -0.9912    3.1741   -1.0236 C   0  0  0  0  0  0  0  0  0  0  0  0
   -1.9925    3.4040   -0.1237 O   0  0  0  0  0  0  0  0  0  0  0  0
   -2.5734    2.3604    0.6780 C   0  0  1  0  0  0  0  0  0  0  0  0
   -3.5569    1.4980   -0.1093 C   0  0  0  0  0  0  0  0  0  0  0  0
   -1.5242    1.6242    1.4479 C   0  0  0  0  0  0  0  0  0  0  0  0
   -0.5811    2.0020    2.3823 C   0  0  0  0  0  0  0  0  0  0  0  0
    0.1763    0.8390    2.6813 C   0  0  0  0  0  0  0  0  0  0  0  0
   -0.3341   -0.1787    1.8951 C   0  0  0  0  0  0  0  0  0  0  0  0
   -0.0022   -1.5694    1.7092 C   0  0  0  0  0  0  0  0  0  0  0  0
   -0.4725   -2.3025    0.8461 O   0  0  0  0  0  0  0  0  0  0  0  0
    0.8309   -1.9870    2.7073 O   0  0  0  0  0  0  0  0  0  0  0  0
    1.0390   -3.4047    2.7419 C   0  0  0  0  0  0  0  0  0  0  0  0
    0.1888   -4.0945    3.8136 C   0  0  0  0  0  0  0  0  0  0  0  0
   -1.2296   -4.0424    3.7020 O   0  0  0  0  0  0  0  0  0  0  0  0
   -1.9102   -2.8305    4.0167 C   0  0  0  0  0  0  0  0  0  0  0  0
   -2.0020   -2.3881    5.4827 C   0  0  0  0  0  0  0  0  0  0  0  0
   -0.7249   -2.2437    6.1221 O   0  0  0  0  0  0  0  0  0  0  0  0
   -0.4273   -3.2420    6.9900 C   0  0  0  0  0  0  0  0  0  0  0  0
   -1.1248   -4.1940    7.2955 O   0  0  0  0  0  0  0  0  0  0  0  0
    0.9763   -3.1288    7.4212 C   0  0  0  0  0  0  0  0  0  0  0  0
    1.8073   -4.2391    7.2232 C   0  0  0  0  0  0  0  0  0  0  0  0
    3.0987   -4.2422    7.7413 C   0  0  0  0  0  0  0  0  0  0  0  0
    3.5563   -3.1413    8.4764 C   0  0  0  0  0  0  0  0  0  0  0  0
    4.8349   -3.2367    9.2188 C   0  0  0  0  0  0  0  0  0  0  0  0
    4.8032   -3.4721   10.7037 C   0  0  0  0  0  0  0  0  0  0  0  0
    5.7965   -3.5491   11.5521 N   0  0  0  0  0  0  0  0  0  0  0  0
    5.2133   -3.7593   12.7958 C   0  0  0  0  0  0  0  0  0  0  0  0
    5.8169   -3.9358   13.9954 C   0  0  0  0  0  0  0  0  0  0  0  0
    4.9306   -4.1236   15.1966 C   0  0  0  0  0  0  0  0  0  0  0  0
    4.1719   -5.2915   15.3754 C   0  0  0  0  0  0  0  0  0  0  0  0
    3.3495   -5.4368   16.4954 C   0  0  0  0  0  0  0  0  0  0  0  0
    3.3082   -4.4370   17.4664 C   0  0  0  0  0  0  0  0  0  0  0  0
    4.0795   -3.2861   17.3157 C   0  0  0  0  0  0  0  0  0  0  0  0
    4.8769   -3.1244   16.1815 C   0  0  0  0  0  0  0  0  0  0  0  0
    7.2423   -3.9152   14.1928 C   0  0  0  0  0  0  0  0  0  0  0  0
    7.9530   -4.1034   15.3654 C   0  0  0  0  0  0  0  0  0  0  0  0
    9.3108   -3.9167   15.0874 C   0  0  0  0  0  0  0  0  0  0  0  0
    9.4517   -3.6869   13.7281 C   0  0  0  0  0  0  0  0  0  0  0  0
    8.1742   -3.6822   13.1931 N   0  0  0  0  0  0  0  0  0  0  0  0
   10.6621   -3.4822   12.9736 C   0  0  0  0  0  0  0  0  0  0  0  0
   11.9705   -3.5396   13.7148 C   0  0  0  0  0  0  0  0  0  0  0  0
   12.7564   -2.3930   13.9086 C   0  0  0  0  0  0  0  0  0  0  0  0
   13.9648   -2.4741   14.6046 C   0  0  0  0  0  0  0  0  0  0  0  0
   14.3784   -3.6898   15.1486 C   0  0  0  0  0  0  0  0  0  0  0  0
   13.5924   -4.8293   14.9885 C   0  0  0  0  0  0  0  0  0  0  0  0
   12.4018   -4.7581   14.2641 C   0  0  0  0  0  0  0  0  0  0  0  0
   10.7136   -3.2794   11.6338 C   0  0  0  0  0  0  0  0  0  0  0  0
    9.6709   -3.2239   10.7165 N   0  0  0  0  0  0  0  0  0  0  0  0
   10.2296   -2.9986    9.5517 C   0  0  0  0  0  0  0  0  0  0  0  0
    9.5866   -2.8824    8.1954 C   0  0  0  0  0  0  0  0  0  0  0  0
   10.4112   -2.6327    6.9838 C   0  0  0  0  0  0  0  0  0  0  0  0
   11.2887   -3.6138    6.4987 C   0  0  0  0  0  0  0  0  0  0  0  0
   12.0895   -3.3577    5.3829 C   0  0  0  0  0  0  0  0  0  0  0  0
   11.9958   -2.1345    4.7209 C   0  0  0  0  0  0  0  0  0  0  0  0
   11.1109   -1.1604    5.1786 C   0  0  0  0  0  0  0  0  0  0  0  0
   10.3333   -1.4016    6.3126 C   0  0  0  0  0  0  0  0  0  0  0  0
    8.2484   -2.9881    8.0887 C   0  0  0  0  0  0  0  0  0  0  0  0
    7.4836   -2.8938    6.8472 C   0  0  0  0  0  0  0  0  0  0  0  0
    6.1719   -2.9580    7.1322 C   0  0  0  0  0  0  0  0  0  0  0  0
    6.0102   -3.1384    8.5740 C   0  0  0  0  0  0  0  0  0  0  0  0
    7.2935   -3.1734    9.0571 N   0  0  0  0  0  0  0  0  0  0  0  0
   11.6914   -2.8534    9.6042 C   0  0  0  0  0  0  0  0  0  0  0  0
   11.9382   -3.0791   10.8870 C   0  0  0  0  0  0  0  0  0  0  0  0
    3.7803   -3.7660   12.5964 C   0  0  0  0  0  0  0  0  0  0  0  0
    3.4741   -3.6393   11.3139 C   0  0  0  0  0  0  0  0  0  0  0  0
    2.7381   -2.0046    8.6149 C   0  0  0  0  0  0  0  0  0  0  0  0
    1.4433   -1.9967    8.0893 C   0  0  0  0  0  0  0  0  0  0  0  0
   -1.3977    0.2968    1.1854 O   0  0  0  0  0  0  0  0  0  0  0  0
   -0.5162    1.9380   -1.4587 C   0  0  0  0  0  0  0  0  0  0  0  0
    2.0150   -0.9628    0.0626 H   0  0  0  0  0  0  0  0  0  0  0  0
    1.8657    0.7498   -0.2497 H   0  0  0  0  0  0  0  0  0  0  0  0
    3.0508   -0.1964   -1.1175 H   0  0  0  0  0  0  0  0  0  0  0  0
    0.5150    0.1301   -3.5570 H   0  0  0  0  0  0  0  0  0  0  0  0
    2.1381    0.6403   -3.0450 H   0  0  0  0  0  0  0  0  0  0  0  0
    1.9486    2.9682   -3.4861 H   0  0  0  0  0  0  0  0  0  0  0  0
    1.0913    5.1272   -2.7937 H   0  0  0  0  0  0  0  0  0  0  0  0
   -0.7477    5.2569   -1.2248 H   0  0  0  0  0  0  0  0  0  0  0  0
   -3.1932    2.8061    1.4277 H   0  0  0  0  0  0  0  0  0  0  0  0
   -3.0381    0.9961   -0.8991 H   0  0  0  0  0  0  0  0  0  0  0  0
   -4.3231    2.1191   -0.5241 H   0  0  0  0  0  0  0  0  0  0  0  0
   -3.9987    0.7744    0.5435 H   0  0  0  0  0  0  0  0  0  0  0  0
   -0.4520    2.9437    2.7842 H   0  0  0  0  0  0  0  0  0  0  0  0
    0.9556    0.7668    3.3539 H   0  0  0  0  0  0  0  0  0  0  0  0
    2.0716   -3.5954    2.9473 H   0  0  0  0  0  0  0  0  0  0  0  0
    0.7485   -3.8001    1.7910 H   0  0  0  0  0  0  0  0  0  0  0  0
    0.4469   -3.6518    4.7529 H   0  0  0  0  0  0  0  0  0  0  0  0
    0.4196   -5.1329    3.6983 H   0  0  0  0  0  0  0  0  0  0  0  0
   -2.9126   -2.9312    3.6562 H   0  0  0  0  0  0  0  0  0  0  0  0
   -1.3106   -2.0727    3.5571 H   0  0  0  0  0  0  0  0  0  0  0  0
   -2.5689   -3.1185    6.0213 H   0  0  0  0  0  0  0  0  0  0  0  0
   -2.4667   -1.4243    5.4903 H   0  0  0  0  0  0  0  0  0  0  0  0
    1.4618   -5.0545    6.6933 H   0  0  0  0  0  0  0  0  0  0  0  0
    3.7174   -5.0531    7.5844 H   0  0  0  0  0  0  0  0  0  0  0  0
    4.2221   -6.0476   14.6748 H   0  0  0  0  0  0  0  0  0  0  0  0
    2.7719   -6.2851   16.6042 H   0  0  0  0  0  0  0  0  0  0  0  0
    2.7062   -4.5493   18.2971 H   0  0  0  0  0  0  0  0  0  0  0  0
    4.0611   -2.5536   18.0424 H   0  0  0  0  0  0  0  0  0  0  0  0
    5.4322   -2.2623   16.0658 H   0  0  0  0  0  0  0  0  0  0  0  0
    7.5506   -4.3405   16.2857 H   0  0  0  0  0  0  0  0  0  0  0  0
   10.0777   -3.9452   15.7774 H   0  0  0  0  0  0  0  0  0  0  0  0
    7.9597   -3.5352   12.2436 H   0  0  0  0  0  0  0  0  0  0  0  0
   12.4397   -1.4847   13.5347 H   0  0  0  0  0  0  0  0  0  0  0  0
   14.5524   -1.6331   14.7164 H   0  0  0  0  0  0  0  0  0  0  0  0
   15.2672   -3.7456   15.6701 H   0  0  0  0  0  0  0  0  0  0  0  0
   13.8905   -5.7251   15.4053 H   0  0  0  0  0  0  0  0  0  0  0  0
   11.8329   -5.6088   14.1308 H   0  0  0  0  0  0  0  0  0  0  0  0
   11.3431   -4.5307    6.9691 H   0  0  0  0  0  0  0  0  0  0  0  0
   12.7515   -4.0752    5.0482 H   0  0  0  0  0  0  0  0  0  0  0  0
   12.5819   -1.9504    3.8917 H   0  0  0  0  0  0  0  0  0  0  0  0
   11.0303   -0.2608    4.6794 H   0  0  0  0  0  0  0  0  0  0  0  0
    9.6956   -0.6687    6.6608 H   0  0  0  0  0  0  0  0  0  0  0  0
    7.8865   -2.7939    5.9023 H   0  0  0  0  0  0  0  0  0  0  0  0
    5.4043   -2.8909    6.4457 H   0  0  0  0  0  0  0  0  0  0  0  0
    7.5089   -3.3175   10.0069 H   0  0  0  0  0  0  0  0  0  0  0  0
   12.3521   -2.6335    8.8425 H   0  0  0  0  0  0  0  0  0  0  0  0
   12.8831   -3.1084   11.3010 H   0  0  0  0  0  0  0  0  0  0  0  0
    3.0866   -3.8576   13.3550 H   0  0  0  0  0  0  0  0  0  0  0  0
    2.5468   -3.6540   10.8612 H   0  0  0  0  0  0  0  0  0  0  0  0
    3.0966   -1.1717    9.1077 H   0  0  0  0  0  0  0  0  0  0  0  0
    0.8411   -1.1652    8.1939 H   0  0  0  0  0  0  0  0  0  0  0  0
   -0.9802    1.0748   -1.1353 H   0  0  0  0  0  0  0  0  0  0  0  0
  1  2  1  0  0  0  0
  1 77  1  0  0  0  0
  1 78  1  0  0  0  0
  1 79  1  0  0  0  0
  2  3  1  0  0  0  0
  3  4  1  0  0  0  0
  3 80  1  0  0  0  0
  3 81  1  0  0  0  0
  4  5  1  0  0  0  0
  4 76  2  0  0  0  0
  5  6  2  0  0  0  0
  5 82  1  0  0  0  0
  6  7  1  0  0  0  0
  6 83  1  0  0  0  0
  7  8  2  0  0  0  0
  7 84  1  0  0  0  0
  8  9  1  0  0  0  0
  8 76  1  0  0  0  0
  9 10  1  0  0  0  0
 10 11  1  0  0  0  0
 10 12  1  0  0  0  0
 10 85  1  1  0  0  0
 11 86  1  0  0  0  0
 11 87  1  0  0  0  0
 11 88  1  0  0  0  0
 12 13  2  0  0  0  0
 12 75  1  0  0  0  0
 13 14  1  0  0  0  0
 13 89  1  0  0  0  0
 14 15  2  0  0  0  0
 14 90  1  0  0  0  0
 15 16  1  0  0  0  0
 15 75  1  0  0  0  0
 16 17  2  0  0  0  0
 16 18  1  0  0  0  0
 18 19  1  0  0  0  0
 19 20  1  0  0  0  0
 19 91  1  0  0  0  0
 19 92  1  0  0  0  0
 20 21  1  0  0  0  0
 20 93  1  0  0  0  0
 20 94  1  0  0  0  0
 21 22  1  0  0  0  0
 22 23  1  0  0  0  0
 22 95  1  0  0  0  0
 22 96  1  0  0  0  0
 23 24  1  0  0  0  0
 23 97  1  0  0  0  0
 23 98  1  0  0  0  0
 24 25  1  0  0  0  0
 25 26  2  0  0  0  0
 25 27  1  0  0  0  0
 27 28  1  0  0  0  0
 27 74  2  0  0  0  0
 28 29  2  0  0  0  0
 28 99  1  0  0  0  0
 29 30  1  0  0  0  0
 29100  1  0  0  0  0
 30 31  1  0  0  0  0
 30 73  2  0  0  0  0
 31 32  1  0  0  0  0
 31 67  2  0  0  0  0
 32 33  2  0  0  0  0
 32 72  1  0  0  0  0
 33 34  1  0  0  0  0
 34 35  2  0  0  0  0
 34 71  1  0  0  0  0
 35 36  1  0  0  0  0
 35 42  1  0  0  0  0
 36 37  1  0  0  0  0
 36 41  2  0  0  0  0
 37 38  2  0  0  0  0
 37101  1  0  0  0  0
 38 39  1  0  0  0  0
 38102  1  0  0  0  0
 39 40  2  0  0  0  0
 39103  1  0  0  0  0
 40 41  1  0  0  0  0
 40104  1  0  0  0  0
 41105  1  0  0  0  0
 42 43  2  0  0  0  0
 42 46  1  0  0  0  0
 43 44  1  0  0  0  0
 43106  1  0  0  0  0
 44 45  2  0  0  0  0
 44107  1  0  0  0  0
 45 46  1  0  0  0  0
 45 47  1  0  0  0  0
 46108  1  0  0  0  0
 47 48  1  0  0  0  0
 47 54  2  0  0  0  0
 48 49  1  0  0  0  0
 48 53  2  0  0  0  0
 49 50  2  0  0  0  0
 49109  1  0  0  0  0
 50 51  1  0  0  0  0
 50110  1  0  0  0  0
 51 52  2  0  0  0  0
 51111  1  0  0  0  0
 52 53  1  0  0  0  0
 52112  1  0  0  0  0
 53113  1  0  0  0  0
 54 55  1  0  0  0  0
 54 70  1  0  0  0  0
 55 56  2  0  0  0  0
 56 57  1  0  0  0  0
 56 69  1  0  0  0  0
 57 58  1  0  0  0  0
 57 64  2  0  0  0  0
 58 59  1  0  0  0  0
 58 63  2  0  0  0  0
 59 60  2  0  0  0  0
 59114  1  0  0  0  0
 60 61  1  0  0  0  0
 60115  1  0  0  0  0
 61 62  2  0  0  0  0
 61116  1  0  0  0  0
 62 63  1  0  0  0  0
 62117  1  0  0  0  0
 63118  1  0  0  0  0
 64 65  1  0  0  0  0
 64 68  1  0  0  0  0
 65 66  2  0  0  0  0
 65119  1  0  0  0  0
 66 67  1  0  0  0  0
 66120  1  0  0  0  0
 67 68  1  0  0  0  0
 68121  1  0  0  0  0
 69 70  2  0  0  0  0
 69122  1  0  0  0  0
 70123  1  0  0  0  0
 71 72  2  0  0  0  0
 71124  1  0  0  0  0
 72125  1  0  0  0  0
 73 74  1  0  0  0  0
 73126  1  0  0  0  0
 74127  1  0  0  0  0
 76128  1  0  0  0  0
M  END
$$$$
