2_4_2209
 OpenBabel04152301363D

134145  0  0  0  0  0  0  0  0999 V2000
   -0.2691    1.5507   -1.5846 C   0  0  0  0  0  0  0  0  0  0  0  0
   -0.5494    0.1715   -1.4116 O   0  0  0  0  0  0  0  0  0  0  0  0
   -0.0608   -0.5864   -2.4390 C   0  0  0  0  0  0  0  0  0  0  0  0
   -1.0677   -1.4038   -3.0382 C   0  0  0  0  0  0  0  0  0  0  0  0
   -0.7622   -2.5027   -3.8600 C   0  0  0  0  0  0  0  0  0  0  0  0
   -1.5723   -4.0684   -3.6616 C   0  0  0  0  0  0  0  0  0  0  0  0
   -0.8601   -5.5658   -4.3345 C   0  0  0  0  0  0  0  0  0  0  0  0
    0.7371   -5.1460   -5.6101 C   0  0  0  0  0  0  0  0  0  0  0  0
    1.2919   -3.4833   -5.7365 C   0  0  0  0  0  0  0  0  0  0  0  0
    0.6705   -2.3001   -4.6836 C   0  0  0  0  0  0  0  0  0  0  0  0
    1.5742   -1.3950   -4.0023 C   0  0  0  0  0  0  0  0  0  0  0  0
    1.2954   -0.7202   -2.7417 C   0  0  0  0  0  0  0  0  0  0  0  0
    2.5114   -0.3930   -1.7818 C   0  0  0  0  0  0  0  0  0  0  0  0
    3.6362   -0.7040   -2.2049 O   0  0  0  0  0  0  0  0  0  0  0  0
    2.5513    0.2373   -0.5000 N   0  0  0  0  0  0  0  0  0  0  0  0
    1.6233    0.3051    0.5619 C   0  0  0  0  0  0  0  0  0  0  0  0
    0.9869   -0.8386    0.8801 C   0  0  0  0  0  0  0  0  0  0  0  0
   -0.3249   -0.7069    1.3486 C   0  0  0  0  0  0  0  0  0  0  0  0
   -1.2397   -1.7550    0.9977 C   0  0  0  0  0  0  0  0  0  0  0  0
   -2.4470   -1.7115    0.8939 O   0  0  0  0  0  0  0  0  0  0  0  0
   -0.3797   -2.7802    0.9730 O   0  0  0  0  0  0  0  0  0  0  0  0
   -0.9689   -3.9326    1.4074 C   0  0  0  0  0  0  0  0  0  0  0  0
   -0.6771   -4.0198    2.8124 C   0  0  0  0  0  0  0  0  0  0  0  0
   -1.8895   -3.5093    3.2986 O   0  0  0  0  0  0  0  0  0  0  0  0
   -1.7048   -2.7469    4.4363 C   0  0  0  0  0  0  0  0  0  0  0  0
   -0.9389   -3.6480    5.4019 C   0  0  0  0  0  0  0  0  0  0  0  0
   -1.6216   -5.0078    5.5129 O   0  0  0  0  0  0  0  0  0  0  0  0
   -1.3871   -6.2129    4.8589 C   0  0  0  0  0  0  0  0  0  0  0  0
   -0.5239   -7.0116    5.2067 O   0  0  0  0  0  0  0  0  0  0  0  0
   -2.2791   -6.5876    3.6577 C   0  0  0  0  0  0  0  0  0  0  0  0
   -1.8913   -7.5903    2.7251 C   0  0  0  0  0  0  0  0  0  0  0  0
   -2.1609   -7.4766    1.3305 C   0  0  0  0  0  0  0  0  0  0  0  0
   -2.7096   -6.3007    0.8742 C   0  0  0  0  0  0  0  0  0  0  0  0
   -2.5889   -5.6603   -0.5199 C   0  0  0  0  0  0  0  0  0  0  0  0
   -3.9755   -5.1989   -1.0103 C   0  0  0  0  0  0  0  0  0  0  0  0
   -4.2950   -4.5295   -2.0643 N   0  0  0  0  0  0  0  0  0  0  0  0
   -5.6679   -4.2574   -2.0439 C   0  0  0  0  0  0  0  0  0  0  0  0
   -6.2289   -3.4207   -2.9617 C   0  0  0  0  0  0  0  0  0  0  0  0
   -7.6570   -2.8120   -2.9639 C   0  0  0  0  0  0  0  0  0  0  0  0
   -7.9139   -1.8000   -3.9178 C   0  0  0  0  0  0  0  0  0  0  0  0
   -9.1222   -1.0864   -4.0054 C   0  0  0  0  0  0  0  0  0  0  0  0
  -10.1647   -1.3732   -3.1438 C   0  0  0  0  0  0  0  0  0  0  0  0
   -9.9842   -2.3790   -2.2010 C   0  0  0  0  0  0  0  0  0  0  0  0
   -8.7521   -3.0878   -2.1112 C   0  0  0  0  0  0  0  0  0  0  0  0
   -5.1989   -2.9697   -3.9114 C   0  0  0  0  0  0  0  0  0  0  0  0
   -4.5557   -1.7633   -4.0663 C   0  0  0  0  0  0  0  0  0  0  0  0
   -3.4918   -1.9391   -5.0086 C   0  0  0  0  0  0  0  0  0  0  0  0
   -3.3632   -3.2848   -5.3334 C   0  0  0  0  0  0  0  0  0  0  0  0
   -4.4375   -3.8837   -4.6359 N   0  0  0  0  0  0  0  0  0  0  0  0
   -2.4140   -4.1733   -6.1292 C   0  0  0  0  0  0  0  0  0  0  0  0
   -3.2259   -5.0098   -7.2131 C   0  0  0  0  0  0  0  0  0  0  0  0
   -2.6061   -5.6626   -8.2756 C   0  0  0  0  0  0  0  0  0  0  0  0
   -3.3092   -6.5173   -9.1500 C   0  0  0  0  0  0  0  0  0  0  0  0
   -4.6928   -6.6403   -9.0858 C   0  0  0  0  0  0  0  0  0  0  0  0
   -5.3759   -5.9071   -8.1397 C   0  0  0  0  0  0  0  0  0  0  0  0
   -4.6532   -5.1154   -7.2318 C   0  0  0  0  0  0  0  0  0  0  0  0
   -0.9788   -4.5126   -5.7811 C   0  0  0  0  0  0  0  0  0  0  0  0
    0.2659   -4.3051   -4.2108 N   0  0  0  0  0  0  0  0  0  0  0  0
    0.9876   -5.7659   -3.7634 C   0  0  0  0  0  0  0  0  0  0  0  0
    1.7381   -5.9209   -2.3963 C   0  0  0  0  0  0  0  0  0  0  0  0
    2.2743   -6.9337   -1.3332 C   0  0  0  0  0  0  0  0  0  0  0  0
    3.0945   -6.2500   -0.3489 C   0  0  0  0  0  0  0  0  0  0  0  0
    2.7818   -6.2531    1.0379 C   0  0  0  0  0  0  0  0  0  0  0  0
    1.7738   -7.0752    1.5170 C   0  0  0  0  0  0  0  0  0  0  0  0
    1.1674   -7.9653    0.6220 C   0  0  0  0  0  0  0  0  0  0  0  0
    1.4302   -7.9329   -0.7875 C   0  0  0  0  0  0  0  0  0  0  0  0
    0.8820   -5.2425   -1.6157 C   0  0  0  0  0  0  0  0  0  0  0  0
    0.5256   -3.8865   -1.6239 C   0  0  0  0  0  0  0  0  0  0  0  0
   -0.7915   -3.8657   -1.2949 C   0  0  0  0  0  0  0  0  0  0  0  0
   -1.3331   -5.2208   -0.9357 C   0  0  0  0  0  0  0  0  0  0  0  0
   -0.1050   -5.8558   -0.8307 N   0  0  0  0  0  0  0  0  0  0  0  0
    0.3623   -7.1165   -5.0430 C   0  0  0  0  0  0  0  0  0  0  0  0
   -0.6765   -6.4440   -6.1303 C   0  0  0  0  0  0  0  0  0  0  0  0
   -6.1866   -4.9436   -0.9040 C   0  0  0  0  0  0  0  0  0  0  0  0
   -5.2076   -5.6056   -0.2895 C   0  0  0  0  0  0  0  0  0  0  0  0
   -3.3942   -5.5396    1.8709 C   0  0  0  0  0  0  0  0  0  0  0  0
   -3.2772   -5.7414    3.2482 C   0  0  0  0  0  0  0  0  0  0  0  0
   -0.8581    0.4371    1.8963 C   0  0  0  0  0  0  0  0  0  0  0  0
   -0.0253    1.5245    1.9284 C   0  0  0  0  0  0  0  0  0  0  0  0
    1.2100    1.4814    1.2225 C   0  0  0  0  0  0  0  0  0  0  0  0
    1.8579    2.8019    0.9888 C   0  0  0  0  0  0  0  0  0  0  0  0
   -0.6690    2.1022   -0.7595 H   0  0  0  0  0  0  0  0  0  0  0  0
   -0.7167    1.8943   -2.4937 H   0  0  0  0  0  0  0  0  0  0  0  0
    0.7899    1.6963   -1.6312 H   0  0  0  0  0  0  0  0  0  0  0  0
   -2.0590   -1.1785   -2.8606 H   0  0  0  0  0  0  0  0  0  0  0  0
   -2.4676   -4.1164   -3.1505 H   0  0  0  0  0  0  0  0  0  0  0  0
   -1.1969   -6.5172   -4.1189 H   0  0  0  0  0  0  0  0  0  0  0  0
    1.1904   -5.8969   -6.1538 H   0  0  0  0  0  0  0  0  0  0  0  0
    1.9933   -3.2251   -6.4481 H   0  0  0  0  0  0  0  0  0  0  0  0
    2.4884   -1.2140   -4.4456 H   0  0  0  0  0  0  0  0  0  0  0  0
    3.3912    0.7191   -0.3224 H   0  0  0  0  0  0  0  0  0  0  0  0
    1.4413   -1.7602    0.7838 H   0  0  0  0  0  0  0  0  0  0  0  0
   -0.5624   -4.7763    0.8899 H   0  0  0  0  0  0  0  0  0  0  0  0
   -2.0232   -3.9273    1.2250 H   0  0  0  0  0  0  0  0  0  0  0  0
    0.1586   -3.4123    3.0907 H   0  0  0  0  0  0  0  0  0  0  0  0
   -0.3978   -4.9875    3.1737 H   0  0  0  0  0  0  0  0  0  0  0  0
   -2.6477   -2.4636    4.8553 H   0  0  0  0  0  0  0  0  0  0  0  0
   -1.1747   -1.8409    4.2289 H   0  0  0  0  0  0  0  0  0  0  0  0
   -0.9108   -3.1874    6.3673 H   0  0  0  0  0  0  0  0  0  0  0  0
    0.0557   -3.7874    5.0327 H   0  0  0  0  0  0  0  0  0  0  0  0
   -1.3980   -8.4283    3.0707 H   0  0  0  0  0  0  0  0  0  0  0  0
   -1.9510   -8.2523    0.6830 H   0  0  0  0  0  0  0  0  0  0  0  0
   -7.1672   -1.5708   -4.5923 H   0  0  0  0  0  0  0  0  0  0  0  0
   -9.2313   -0.3457   -4.7156 H   0  0  0  0  0  0  0  0  0  0  0  0
  -11.0547   -0.8537   -3.1991 H   0  0  0  0  0  0  0  0  0  0  0  0
  -10.7547   -2.6156   -1.5565 H   0  0  0  0  0  0  0  0  0  0  0  0
   -8.6546   -3.8285   -1.3993 H   0  0  0  0  0  0  0  0  0  0  0  0
   -4.7983   -0.8828   -3.5858 H   0  0  0  0  0  0  0  0  0  0  0  0
   -2.9070   -1.1792   -5.3902 H   0  0  0  0  0  0  0  0  0  0  0  0
   -4.6281   -4.8493   -4.6599 H   0  0  0  0  0  0  0  0  0  0  0  0
   -1.5961   -5.5158   -8.4287 H   0  0  0  0  0  0  0  0  0  0  0  0
   -2.7857   -7.0629   -9.8523 H   0  0  0  0  0  0  0  0  0  0  0  0
   -5.1971   -7.2669   -9.7324 H   0  0  0  0  0  0  0  0  0  0  0  0
   -6.4066   -5.9393   -8.0987 H   0  0  0  0  0  0  0  0  0  0  0  0
   -5.1861   -4.5747   -6.5327 H   0  0  0  0  0  0  0  0  0  0  0  0
    3.9351   -5.7434   -0.6678 H   0  0  0  0  0  0  0  0  0  0  0  0
    3.3044   -5.6443    1.6869 H   0  0  0  0  0  0  0  0  0  0  0  0
    1.4787   -7.0325    2.5050 H   0  0  0  0  0  0  0  0  0  0  0  0
    0.5083   -8.6692    0.9896 H   0  0  0  0  0  0  0  0  0  0  0  0
    1.0032   -8.6396   -1.4066 H   0  0  0  0  0  0  0  0  0  0  0  0
    1.1329   -3.0791   -1.8344 H   0  0  0  0  0  0  0  0  0  0  0  0
   -1.3629   -3.0063   -1.2918 H   0  0  0  0  0  0  0  0  0  0  0  0
    0.0559   -6.6478   -0.2685 H   0  0  0  0  0  0  0  0  0  0  0  0
    0.6448   -8.1091   -5.0357 H   0  0  0  0  0  0  0  0  0  0  0  0
   -1.1188   -6.9657   -6.9031 H   0  0  0  0  0  0  0  0  0  0  0  0
   -7.1731   -4.9288   -0.6014 H   0  0  0  0  0  0  0  0  0  0  0  0
   -5.2878   -6.2552    0.5084 H   0  0  0  0  0  0  0  0  0  0  0  0
   -4.0211   -4.7854    1.5497 H   0  0  0  0  0  0  0  0  0  0  0  0
   -3.9080   -5.2785    3.9212 H   0  0  0  0  0  0  0  0  0  0  0  0
   -1.8233    0.4737    2.2596 H   0  0  0  0  0  0  0  0  0  0  0  0
   -0.2914    2.3680    2.4601 H   0  0  0  0  0  0  0  0  0  0  0  0
    2.7739    2.6601    0.4542 H   0  0  0  0  0  0  0  0  0  0  0  0
    2.0624    3.2702    1.9289 H   0  0  0  0  0  0  0  0  0  0  0  0
    1.2029    3.4241    0.4154 H   0  0  0  0  0  0  0  0  0  0  0  0
  1  2  1  0  0  0  0
  1 82  1  0  0  0  0
  1 83  1  0  0  0  0
  1 84  1  0  0  0  0
  2  3  1  0  0  0  0
  3  4  1  0  0  0  0
  3 12  2  0  0  0  0
  4  5  2  0  0  0  0
  4 85  1  0  0  0  0
  5  6  1  0  0  0  0
  5 10  1  0  0  0  0
  6  7  2  0  0  0  0
  6 86  1  0  0  0  0
  7  8  1  0  0  0  0
  7 87  1  0  0  0  0
  8  9  2  0  0  0  0
  8 88  1  0  0  0  0
  9 10  1  0  0  0  0
  9 89  1  0  0  0  0
 10 11  2  0  0  0  0
 11 12  1  0  0  0  0
 11 90  1  0  0  0  0
 12 13  1  0  0  0  0
 13 14  2  0  0  0  0
 13 15  1  0  0  0  0
 15 16  1  0  0  0  0
 15 91  1  0  0  0  0
 16 17  1  0  0  0  0
 16 80  2  0  0  0  0
 17 18  2  0  0  0  0
 17 92  1  0  0  0  0
 18 19  1  0  0  0  0
 18 78  1  0  0  0  0
 19 20  2  0  0  0  0
 19 21  1  0  0  0  0
 21 22  1  0  0  0  0
 22 23  1  0  0  0  0
 22 93  1  0  0  0  0
 22 94  1  0  0  0  0
 23 24  1  0  0  0  0
 23 95  1  0  0  0  0
 23 96  1  0  0  0  0
 24 25  1  0  0  0  0
 25 26  1  0  0  0  0
 25 97  1  0  0  0  0
 25 98  1  0  0  0  0
 26 27  1  0  0  0  0
 26 99  1  0  0  0  0
 26100  1  0  0  0  0
 27 28  1  0  0  0  0
 28 29  2  0  0  0  0
 28 30  1  0  0  0  0
 30 31  1  0  0  0  0
 30 77  2  0  0  0  0
 31 32  2  0  0  0  0
 31101  1  0  0  0  0
 32 33  1  0  0  0  0
 32102  1  0  0  0  0
 33 34  1  0  0  0  0
 33 76  2  0  0  0  0
 34 35  1  0  0  0  0
 34 70  2  0  0  0  0
 35 36  2  0  0  0  0
 35 75  1  0  0  0  0
 36 37  1  0  0  0  0
 37 38  2  0  0  0  0
 37 74  1  0  0  0  0
 38 39  1  0  0  0  0
 38 45  1  0  0  0  0
 39 40  1  0  0  0  0
 39 44  2  0  0  0  0
 40 41  2  0  0  0  0
 40103  1  0  0  0  0
 41 42  1  0  0  0  0
 41104  1  0  0  0  0
 42 43  2  0  0  0  0
 42105  1  0  0  0  0
 43 44  1  0  0  0  0
 43106  1  0  0  0  0
 44107  1  0  0  0  0
 45 46  2  0  0  0  0
 45 49  1  0  0  0  0
 46 47  1  0  0  0  0
 46108  1  0  0  0  0
 47 48  2  0  0  0  0
 47109  1  0  0  0  0
 48 49  1  0  0  0  0
 48 50  1  0  0  0  0
 49110  1  0  0  0  0
 50 51  1  0  0  0  0
 50 57  2  0  0  0  0
 51 52  1  0  0  0  0
 51 56  2  0  0  0  0
 52 53  2  0  0  0  0
 52111  1  0  0  0  0
 53 54  1  0  0  0  0
 53112  1  0  0  0  0
 54 55  2  0  0  0  0
 54113  1  0  0  0  0
 55 56  1  0  0  0  0
 55114  1  0  0  0  0
 56115  1  0  0  0  0
 57 58  1  0  0  0  0
 57 73  1  0  0  0  0
 58 59  2  0  0  0  0
 59 60  1  0  0  0  0
 59 72  1  0  0  0  0
 60 61  1  0  0  0  0
 60 67  2  0  0  0  0
 61 62  1  0  0  0  0
 61 66  2  0  0  0  0
 62 63  2  0  0  0  0
 62116  1  0  0  0  0
 63 64  1  0  0  0  0
 63117  1  0  0  0  0
 64 65  2  0  0  0  0
 64118  1  0  0  0  0
 65 66  1  0  0  0  0
 65119  1  0  0  0  0
 66120  1  0  0  0  0
 67 68  1  0  0  0  0
 67 71  1  0  0  0  0
 68 69  2  0  0  0  0
 68121  1  0  0  0  0
 69 70  1  0  0  0  0
 69122  1  0  0  0  0
 70 71  1  0  0  0  0
 71123  1  0  0  0  0
 72 73  2  0  0  0  0
 72124  1  0  0  0  0
 73125  1  0  0  0  0
 74 75  2  0  0  0  0
 74126  1  0  0  0  0
 75127  1  0  0  0  0
 76 77  1  0  0  0  0
 76128  1  0  0  0  0
 77129  1  0  0  0  0
 78 79  2  0  0  0  0
 78130  1  0  0  0  0
 79 80  1  0  0  0  0
 79131  1  0  0  0  0
 80 81  1  0  0  0  0
 81132  1  0  0  0  0
 81133  1  0  0  0  0
 81134  1  0  0  0  0
M  END
$$$$
