2_4_1717
 OpenBabel04152301363D

135145  0  0  0  0  0  0  0  0999 V2000
    0.4093    0.0174    2.2207 C   0  0  0  0  0  0  0  0  0  0  0  0
    0.5246   -1.4974    2.0569 C   0  0  0  0  0  0  0  0  0  0  0  0
    1.1858   -2.1888    3.1341 O   0  0  0  0  0  0  0  0  0  0  0  0
    2.4673   -2.5195    2.7605 C   0  0  0  0  0  0  0  0  0  0  0  0
    3.0391   -4.2114    2.8138 C   0  0  0  0  0  0  0  0  0  0  0  0
    4.6029   -4.7350    2.0610 C   0  0  0  0  0  0  0  0  0  0  0  0
    5.6771   -3.6417    1.1568 C   0  0  0  0  0  0  0  0  0  0  0  0
    7.1637   -3.4167    1.4482 C   0  0  0  0  0  0  0  0  0  0  0  0
    7.8487   -4.3696    1.8177 O   0  0  0  0  0  0  0  0  0  0  0  0
    7.8163   -2.0295    1.4123 N   0  0  0  0  0  0  0  0  0  0  0  0
    7.8466   -0.5774    1.2546 C   0  0  0  0  0  0  0  0  0  0  0  0
    9.3441    0.1760    1.2865 S   0  0  0  0  0  0  0  0  0  0  0  0
    6.7543    0.2364    1.0320 N   0  0  0  0  0  0  0  0  0  0  0  0
    5.4201   -0.0151    1.4389 C   0  0  0  0  0  0  0  0  0  0  0  0
    5.5050   -1.1303    2.8138 C   0  0  0  0  0  0  0  0  0  0  0  0
    4.5927   -2.6365    2.6810 C   0  0  0  0  0  0  0  0  0  0  0  0
    3.5347   -3.0176    1.0113 C   0  0  0  0  0  0  0  0  0  0  0  0
    3.3934   -1.7199   -0.2238 C   0  0  0  0  0  0  0  0  0  0  0  0
    2.5839   -1.8288   -1.4333 C   0  0  0  0  0  0  0  0  0  0  0  0
    3.0170   -1.7187   -2.5642 O   0  0  0  0  0  0  0  0  0  0  0  0
    1.2974   -1.8872   -1.0416 O   0  0  0  0  0  0  0  0  0  0  0  0
    0.3554   -2.0615   -2.0844 C   0  0  0  0  0  0  0  0  0  0  0  0
   -0.4625   -0.8774   -2.6205 C   0  0  0  0  0  0  0  0  0  0  0  0
   -0.5635    0.3043   -1.8856 O   0  0  0  0  0  0  0  0  0  0  0  0
   -1.0291    0.0488   -0.5737 C   0  0  0  0  0  0  0  0  0  0  0  0
   -2.2895   -0.8758   -0.3302 C   0  0  0  0  0  0  0  0  0  0  0  0
   -2.1874   -2.1881   -0.9960 O   0  0  0  0  0  0  0  0  0  0  0  0
   -3.2428   -2.9527   -1.4394 C   0  0  0  0  0  0  0  0  0  0  0  0
   -4.2917   -3.1135   -0.8472 O   0  0  0  0  0  0  0  0  0  0  0  0
   -2.8564   -3.6254   -2.7589 C   0  0  0  0  0  0  0  0  0  0  0  0
   -2.5678   -4.9722   -2.8897 C   0  0  0  0  0  0  0  0  0  0  0  0
   -1.3878   -5.3637   -3.5563 C   0  0  0  0  0  0  0  0  0  0  0  0
   -0.5892   -4.3903   -4.1290 C   0  0  0  0  0  0  0  0  0  0  0  0
    0.9253   -4.3918   -4.1152 C   0  0  0  0  0  0  0  0  0  0  0  0
    1.6235   -3.7344   -5.2512 C   0  0  0  0  0  0  0  0  0  0  0  0
    2.2521   -4.3407   -6.2045 N   0  0  0  0  0  0  0  0  0  0  0  0
    2.8368   -3.3224   -6.9457 C   0  0  0  0  0  0  0  0  0  0  0  0
    4.1795   -3.2990   -7.2120 C   0  0  0  0  0  0  0  0  0  0  0  0
    4.8952   -2.1520   -7.9275 C   0  0  0  0  0  0  0  0  0  0  0  0
    6.2993   -2.1364   -8.0017 C   0  0  0  0  0  0  0  0  0  0  0  0
    7.0063   -1.1422   -8.7065 C   0  0  0  0  0  0  0  0  0  0  0  0
    6.3326   -0.1136   -9.3537 C   0  0  0  0  0  0  0  0  0  0  0  0
    4.9496   -0.0906   -9.3081 C   0  0  0  0  0  0  0  0  0  0  0  0
    4.2520   -1.1085   -8.6329 C   0  0  0  0  0  0  0  0  0  0  0  0
    4.8534   -4.3462   -6.4312 C   0  0  0  0  0  0  0  0  0  0  0  0
    5.6984   -4.3192   -5.3337 C   0  0  0  0  0  0  0  0  0  0  0  0
    5.6136   -5.5993   -4.6875 C   0  0  0  0  0  0  0  0  0  0  0  0
    4.7227   -6.3998   -5.3918 C   0  0  0  0  0  0  0  0  0  0  0  0
    4.3588   -5.6438   -6.4922 N   0  0  0  0  0  0  0  0  0  0  0  0
    4.2724   -7.7974   -5.3079 C   0  0  0  0  0  0  0  0  0  0  0  0
    4.6111   -8.7201   -6.4574 C   0  0  0  0  0  0  0  0  0  0  0  0
    4.0551   -9.9956   -6.6071 C   0  0  0  0  0  0  0  0  0  0  0  0
    4.3590  -10.8049   -7.7019 C   0  0  0  0  0  0  0  0  0  0  0  0
    5.1278  -10.3086   -8.7455 C   0  0  0  0  0  0  0  0  0  0  0  0
    5.6143   -9.0133   -8.6812 C   0  0  0  0  0  0  0  0  0  0  0  0
    5.3960   -8.2519   -7.5344 C   0  0  0  0  0  0  0  0  0  0  0  0
    3.5749   -8.2324   -4.2115 C   0  0  0  0  0  0  0  0  0  0  0  0
    2.8493   -7.4242   -3.3953 N   0  0  0  0  0  0  0  0  0  0  0  0
    2.4131   -8.0891   -2.3496 C   0  0  0  0  0  0  0  0  0  0  0  0
    1.8723   -7.4005   -1.1046 C   0  0  0  0  0  0  0  0  0  0  0  0
    0.5902   -7.5146   -0.3096 C   0  0  0  0  0  0  0  0  0  0  0  0
    0.7012   -7.0045    1.0133 C   0  0  0  0  0  0  0  0  0  0  0  0
   -0.2343   -6.0902    1.5231 C   0  0  0  0  0  0  0  0  0  0  0  0
   -1.3808   -5.8138    0.8052 C   0  0  0  0  0  0  0  0  0  0  0  0
   -1.6425   -6.5719   -0.3296 C   0  0  0  0  0  0  0  0  0  0  0  0
   -0.6659   -7.4071   -0.9114 C   0  0  0  0  0  0  0  0  0  0  0  0
    2.1646   -6.0732   -1.2173 C   0  0  0  0  0  0  0  0  0  0  0  0
    3.4092   -5.5130   -1.7132 C   0  0  0  0  0  0  0  0  0  0  0  0
    3.1142   -4.7077   -2.7584 C   0  0  0  0  0  0  0  0  0  0  0  0
    1.6591   -4.7329   -3.0083 C   0  0  0  0  0  0  0  0  0  0  0  0
    1.1770   -5.2653   -1.8127 N   0  0  0  0  0  0  0  0  0  0  0  0
    2.7060   -9.5129   -2.4555 C   0  0  0  0  0  0  0  0  0  0  0  0
    3.4369   -9.5414   -3.5867 C   0  0  0  0  0  0  0  0  0  0  0  0
    2.0073   -2.1747   -6.7290 C   0  0  0  0  0  0  0  0  0  0  0  0
    1.4863   -2.2905   -5.5098 C   0  0  0  0  0  0  0  0  0  0  0  0
   -1.3078   -3.2662   -4.5391 C   0  0  0  0  0  0  0  0  0  0  0  0
   -2.4541   -2.8704   -3.8380 C   0  0  0  0  0  0  0  0  0  0  0  0
    4.2933   -0.2249    0.0434 C   0  0  0  0  0  0  0  0  0  0  0  0
    4.2823    0.7141   -1.1306 C   0  0  0  0  0  0  0  0  0  0  0  0
    5.1243   -2.0316    0.9571 C   0  0  0  0  0  0  0  0  0  0  0  0
    3.4946   -1.3094    1.8872 C   0  0  0  0  0  0  0  0  0  0  0  0
    3.2492    0.4997    3.0877 Br  0  0  0  0  0  0  0  0  0  0  0  0
   -0.0942    0.4306    1.3718 H   0  0  0  0  0  0  0  0  0  0  0  0
    1.3879    0.4434    2.2972 H   0  0  0  0  0  0  0  0  0  0  0  0
   -0.1465    0.2389    3.1078 H   0  0  0  0  0  0  0  0  0  0  0  0
    1.0698   -1.6912    1.1569 H   0  0  0  0  0  0  0  0  0  0  0  0
   -0.4788   -1.8686    2.0415 H   0  0  0  0  0  0  0  0  0  0  0  0
    2.4571   -4.9173    3.2912 H   0  0  0  0  0  0  0  0  0  0  0  0
    4.8860   -5.7222    2.1625 H   0  0  0  0  0  0  0  0  0  0  0  0
    8.7583   -2.2373    1.6090 H   0  0  0  0  0  0  0  0  0  0  0  0
    6.9181    1.0745    0.5421 H   0  0  0  0  0  0  0  0  0  0  0  0
    6.0623   -0.9095    3.6539 H   0  0  0  0  0  0  0  0  0  0  0  0
    4.6019   -3.3182    3.4558 H   0  0  0  0  0  0  0  0  0  0  0  0
    3.0847   -3.9352    0.8682 H   0  0  0  0  0  0  0  0  0  0  0  0
   -0.3511   -2.7864   -1.7375 H   0  0  0  0  0  0  0  0  0  0  0  0
    0.9745   -2.3157   -2.9193 H   0  0  0  0  0  0  0  0  0  0  0  0
   -1.4607   -1.2348   -2.7649 H   0  0  0  0  0  0  0  0  0  0  0  0
    0.0897   -0.5759   -3.4860 H   0  0  0  0  0  0  0  0  0  0  0  0
   -1.2592    0.9997   -0.1404 H   0  0  0  0  0  0  0  0  0  0  0  0
   -0.2304   -0.5183   -0.1432 H   0  0  0  0  0  0  0  0  0  0  0  0
   -3.1571   -0.3724   -0.7028 H   0  0  0  0  0  0  0  0  0  0  0  0
   -2.3503   -1.0582    0.7224 H   0  0  0  0  0  0  0  0  0  0  0  0
   -3.2090   -5.6828   -2.5037 H   0  0  0  0  0  0  0  0  0  0  0  0
   -1.1247   -6.3598   -3.6157 H   0  0  0  0  0  0  0  0  0  0  0  0
    6.8310   -2.8799   -7.5227 H   0  0  0  0  0  0  0  0  0  0  0  0
    8.0370   -1.1784   -8.7425 H   0  0  0  0  0  0  0  0  0  0  0  0
    6.8540    0.6197   -9.8591 H   0  0  0  0  0  0  0  0  0  0  0  0
    4.4304    0.6729   -9.7692 H   0  0  0  0  0  0  0  0  0  0  0  0
    3.2203   -1.0931   -8.6533 H   0  0  0  0  0  0  0  0  0  0  0  0
    6.2831   -3.5232   -5.0345 H   0  0  0  0  0  0  0  0  0  0  0  0
    6.1300   -5.8787   -3.8388 H   0  0  0  0  0  0  0  0  0  0  0  0
    3.8110   -5.9865   -7.2350 H   0  0  0  0  0  0  0  0  0  0  0  0
    3.4030  -10.3468   -5.8885 H   0  0  0  0  0  0  0  0  0  0  0  0
    4.0110  -11.7759   -7.7360 H   0  0  0  0  0  0  0  0  0  0  0  0
    5.3357  -10.9011   -9.5645 H   0  0  0  0  0  0  0  0  0  0  0  0
    6.1353   -8.6144   -9.4777 H   0  0  0  0  0  0  0  0  0  0  0  0
    5.8223   -7.3143   -7.4699 H   0  0  0  0  0  0  0  0  0  0  0  0
    1.4847   -7.3125    1.6102 H   0  0  0  0  0  0  0  0  0  0  0  0
   -0.0659   -5.6271    2.4298 H   0  0  0  0  0  0  0  0  0  0  0  0
   -2.0255   -5.0650    1.1031 H   0  0  0  0  0  0  0  0  0  0  0  0
   -2.5793   -6.5224   -0.7596 H   0  0  0  0  0  0  0  0  0  0  0  0
   -0.8773   -7.9337   -1.7734 H   0  0  0  0  0  0  0  0  0  0  0  0
    4.3516   -5.6969   -1.3350 H   0  0  0  0  0  0  0  0  0  0  0  0
    3.8011   -4.1591   -3.2990 H   0  0  0  0  0  0  0  0  0  0  0  0
    0.2804   -5.1008   -1.4408 H   0  0  0  0  0  0  0  0  0  0  0  0
    2.4289  -10.2882   -1.8333 H   0  0  0  0  0  0  0  0  0  0  0  0
    3.8562  -10.4023   -3.9714 H   0  0  0  0  0  0  0  0  0  0  0  0
    1.8442   -1.4025   -7.3939 H   0  0  0  0  0  0  0  0  0  0  0  0
    1.0885   -1.5575   -4.9020 H   0  0  0  0  0  0  0  0  0  0  0  0
   -0.9940   -2.7257   -5.3603 H   0  0  0  0  0  0  0  0  0  0  0  0
   -2.9847   -2.0326   -4.1235 H   0  0  0  0  0  0  0  0  0  0  0  0
    4.8460    1.5914   -0.8909 H   0  0  0  0  0  0  0  0  0  0  0  0
    3.2736    0.9893   -1.3578 H   0  0  0  0  0  0  0  0  0  0  0  0
    4.7195    0.2299   -1.9787 H   0  0  0  0  0  0  0  0  0  0  0  0
    5.6522   -1.4040    0.3307 H   0  0  0  0  0  0  0  0  0  0  0  0
  1  2  1  0  0  0  0
  1 83  1  0  0  0  0
  1 84  1  0  0  0  0
  1 85  1  0  0  0  0
  2  3  1  0  0  0  0
  2 86  1  0  0  0  0
  2 87  1  0  0  0  0
  3  4  1  0  0  0  0
  4  5  1  0  0  0  0
  4 81  2  0  0  0  0
  5  6  2  0  0  0  0
  5 88  1  0  0  0  0
  6  7  1  0  0  0  0
  6 89  1  0  0  0  0
  7  8  1  0  0  0  0
  7 80  2  0  0  0  0
  8  9  2  0  0  0  0
  8 10  1  0  0  0  0
 10 11  1  0  0  0  0
 10 90  1  0  0  0  0
 11 12  2  0  0  0  0
 11 13  1  0  0  0  0
 13 14  1  0  0  0  0
 13 91  1  0  0  0  0
 14 15  1  0  0  0  0
 14 78  2  0  0  0  0
 15 16  2  0  0  0  0
 15 92  1  0  0  0  0
 16 17  1  0  0  0  0
 16 93  1  0  0  0  0
 17 18  2  0  0  0  0
 17 94  1  0  0  0  0
 18 19  1  0  0  0  0
 18 78  1  0  0  0  0
 19 20  2  0  0  0  0
 19 21  1  0  0  0  0
 21 22  1  0  0  0  0
 22 23  1  0  0  0  0
 22 95  1  0  0  0  0
 22 96  1  0  0  0  0
 23 24  1  0  0  0  0
 23 97  1  0  0  0  0
 23 98  1  0  0  0  0
 24 25  1  0  0  0  0
 25 26  1  0  0  0  0
 25 99  1  0  0  0  0
 25100  1  0  0  0  0
 26 27  1  0  0  0  0
 26101  1  0  0  0  0
 26102  1  0  0  0  0
 27 28  1  0  0  0  0
 28 29  2  0  0  0  0
 28 30  1  0  0  0  0
 30 31  1  0  0  0  0
 30 77  2  0  0  0  0
 31 32  2  0  0  0  0
 31103  1  0  0  0  0
 32 33  1  0  0  0  0
 32104  1  0  0  0  0
 33 34  1  0  0  0  0
 33 76  2  0  0  0  0
 34 35  1  0  0  0  0
 34 70  2  0  0  0  0
 35 36  2  0  0  0  0
 35 75  1  0  0  0  0
 36 37  1  0  0  0  0
 37 38  2  0  0  0  0
 37 74  1  0  0  0  0
 38 39  1  0  0  0  0
 38 45  1  0  0  0  0
 39 40  1  0  0  0  0
 39 44  2  0  0  0  0
 40 41  2  0  0  0  0
 40105  1  0  0  0  0
 41 42  1  0  0  0  0
 41106  1  0  0  0  0
 42 43  2  0  0  0  0
 42107  1  0  0  0  0
 43 44  1  0  0  0  0
 43108  1  0  0  0  0
 44109  1  0  0  0  0
 45 46  2  0  0  0  0
 45 49  1  0  0  0  0
 46 47  1  0  0  0  0
 46110  1  0  0  0  0
 47 48  2  0  0  0  0
 47111  1  0  0  0  0
 48 49  1  0  0  0  0
 48 50  1  0  0  0  0
 49112  1  0  0  0  0
 50 51  1  0  0  0  0
 50 57  2  0  0  0  0
 51 52  1  0  0  0  0
 51 56  2  0  0  0  0
 52 53  2  0  0  0  0
 52113  1  0  0  0  0
 53 54  1  0  0  0  0
 53114  1  0  0  0  0
 54 55  2  0  0  0  0
 54115  1  0  0  0  0
 55 56  1  0  0  0  0
 55116  1  0  0  0  0
 56117  1  0  0  0  0
 57 58  1  0  0  0  0
 57 73  1  0  0  0  0
 58 59  2  0  0  0  0
 59 60  1  0  0  0  0
 59 72  1  0  0  0  0
 60 61  1  0  0  0  0
 60 67  2  0  0  0  0
 61 62  1  0  0  0  0
 61 66  2  0  0  0  0
 62 63  2  0  0  0  0
 62118  1  0  0  0  0
 63 64  1  0  0  0  0
 63119  1  0  0  0  0
 64 65  2  0  0  0  0
 64120  1  0  0  0  0
 65 66  1  0  0  0  0
 65121  1  0  0  0  0
 66122  1  0  0  0  0
 67 68  1  0  0  0  0
 67 71  1  0  0  0  0
 68 69  2  0  0  0  0
 68123  1  0  0  0  0
 69 70  1  0  0  0  0
 69124  1  0  0  0  0
 70 71  1  0  0  0  0
 71125  1  0  0  0  0
 72 73  2  0  0  0  0
 72126  1  0  0  0  0
 73127  1  0  0  0  0
 74 75  2  0  0  0  0
 74128  1  0  0  0  0
 75129  1  0  0  0  0
 76 77  1  0  0  0  0
 76130  1  0  0  0  0
 77131  1  0  0  0  0
 78 79  1  0  0  0  0
 79132  1  0  0  0  0
 79133  1  0  0  0  0
 79134  1  0  0  0  0
 80 81  1  0  0  0  0
 80135  1  0  0  0  0
 81 82  1  0  0  0  0
M  END
$$$$
