2_4_3976
 OpenBabel04152301373D

134145  0  0  1  0  0  0  0  0999 V2000
    7.2047    6.9772   -1.8351 O   0  0  0  0  0  0  0  0  0  0  0  0
    7.3900    5.8271   -2.2337 C   0  0  0  0  0  0  0  0  0  0  0  0
    7.2089    4.8233   -1.3483 O   0  0  0  0  0  0  0  0  0  0  0  0
    7.3646    3.4076   -1.5091 C   0  0  0  0  0  0  0  0  0  0  0  0
    6.0584    2.6886   -1.8757 C   0  0  0  0  0  0  0  0  0  0  0  0
    5.3523    3.0602   -3.0548 O   0  0  0  0  0  0  0  0  0  0  0  0
    4.6685    4.3083   -3.1560 C   0  0  0  0  0  0  0  0  0  0  0  0
    3.6183    4.7129   -2.1286 C   0  0  0  0  0  0  0  0  0  0  0  0
    4.1134    4.6120   -0.7902 O   0  0  0  0  0  0  0  0  0  0  0  0
    3.4145    3.7256   -0.0229 C   0  0  0  0  0  0  0  0  0  0  0  0
    2.4303    3.1405   -0.4315 O   0  0  0  0  0  0  0  0  0  0  0  0
    4.0682    3.5322    1.3705 C   0  0  2  0  0  0  0  0  0  0  0  0
    3.5619    2.2402    1.9864 C   0  0  0  0  0  0  0  0  0  0  0  0
    2.2576    1.6984    1.8545 C   0  0  0  0  0  0  0  0  0  0  0  0
    2.1648    0.4538    2.3002 N   0  0  0  0  0  0  0  0  0  0  0  0
    3.3398    0.2489    2.9193 N   0  0  0  0  0  0  0  0  0  0  0  0
    3.5160   -0.9853    3.6783 C   0  0  0  0  0  0  0  0  0  0  0  0
    2.7375   -0.9577    4.9773 C   0  0  0  0  0  0  0  0  0  0  0  0
    3.3721   -1.2455    6.1912 C   0  0  0  0  0  0  0  0  0  0  0  0
    2.6636   -1.1702    7.3934 C   0  0  0  0  0  0  0  0  0  0  0  0
    1.3169   -0.8078    7.3986 C   0  0  0  0  0  0  0  0  0  0  0  0
    0.6633   -0.5556    6.1992 C   0  0  0  0  0  0  0  0  0  0  0  0
    1.3629   -0.6550    4.9994 C   0  0  0  0  0  0  0  0  0  0  0  0
    4.2386    1.2631    2.7040 C   0  0  0  0  0  0  0  0  0  0  0  0
    3.8902    4.6537    2.3170 N   0  3  0  0  0  0  0  0  0  0  0  0
    2.5248    5.1806    2.4661 C   0  0  0  0  0  0  0  0  0  0  0  0
    2.1603    6.3032    1.4819 C   0  0  0  0  0  0  0  0  0  0  0  0
    3.0897    7.3856    1.5745 O   0  0  0  0  0  0  0  0  0  0  0  0
    4.4210    6.9475    1.2819 C   0  0  0  0  0  0  0  0  0  0  0  0
    4.8532    5.7643    2.1712 C   0  0  0  0  0  0  0  0  0  0  0  0
    7.7157    5.6395   -3.6899 C   0  0  0  0  0  0  0  0  0  0  0  0
    7.9637    4.4287   -4.3399 C   0  0  0  0  0  0  0  0  0  0  0  0
    8.3561    4.3948   -5.6698 C   0  0  0  0  0  0  0  0  0  0  0  0
    8.4457    5.5745   -6.3996 C   0  0  0  0  0  0  0  0  0  0  0  0
    9.0427    5.4723   -7.7255 C   0  0  0  0  0  0  0  0  0  0  0  0
    8.4129    4.5410   -8.7039 C   0  0  0  0  0  0  0  0  0  0  0  0
    8.9469    3.5205   -9.2980 N   0  0  0  0  0  0  0  0  0  0  0  0
    7.9839    3.0399  -10.1835 C   0  0  0  0  0  0  0  0  0  0  0  0
    8.2712    2.1686  -11.1897 C   0  0  0  0  0  0  0  0  0  0  0  0
    7.5746    2.1791  -12.5266 C   0  0  0  0  0  0  0  0  0  0  0  0
    7.8517    1.1604  -13.4576 C   0  0  0  0  0  0  0  0  0  0  0  0
    7.4907    1.2856  -14.8054 C   0  0  0  0  0  0  0  0  0  0  0  0
    6.8054    2.4130  -15.2465 C   0  0  0  0  0  0  0  0  0  0  0  0
    6.4738    3.4103  -14.3405 C   0  0  0  0  0  0  0  0  0  0  0  0
    6.8725    3.3014  -13.0052 C   0  0  0  0  0  0  0  0  0  0  0  0
    9.5107    1.4740  -10.9921 C   0  0  0  0  0  0  0  0  0  0  0  0
    9.9992    0.5832  -10.0586 C   0  0  0  0  0  0  0  0  0  0  0  0
   11.3958    0.8556   -9.9790 C   0  0  0  0  0  0  0  0  0  0  0  0
   11.6693    1.8916  -10.8744 C   0  0  0  0  0  0  0  0  0  0  0  0
   10.5971    1.8777  -11.7265 N   0  0  0  0  0  0  0  0  0  0  0  0
   12.6877    2.9181  -10.8704 C   0  0  0  0  0  0  0  0  0  0  0  0
   13.7796    2.7654   -9.8419 C   0  0  0  0  0  0  0  0  0  0  0  0
   13.8056    3.5278   -8.6608 C   0  0  0  0  0  0  0  0  0  0  0  0
   14.7448    3.2659   -7.6595 C   0  0  0  0  0  0  0  0  0  0  0  0
   15.6507    2.2188   -7.8120 C   0  0  0  0  0  0  0  0  0  0  0  0
   15.6258    1.4414   -8.9688 C   0  0  0  0  0  0  0  0  0  0  0  0
   14.7000    1.7157   -9.9790 C   0  0  0  0  0  0  0  0  0  0  0  0
   12.5604    4.1260  -11.4957 C   0  0  0  0  0  0  0  0  0  0  0  0
   13.2410    5.2455  -11.0415 N   0  0  0  0  0  0  0  0  0  0  0  0
   12.4851    6.2545  -11.3677 C   0  0  0  0  0  0  0  0  0  0  0  0
   12.3571    7.4829  -10.5558 C   0  0  0  0  0  0  0  0  0  0  0  0
   12.6099    8.8382  -11.0789 C   0  0  0  0  0  0  0  0  0  0  0  0
   13.5980    9.0714  -12.0425 C   0  0  0  0  0  0  0  0  0  0  0  0
   13.6724   10.3050  -12.7025 C   0  0  0  0  0  0  0  0  0  0  0  0
   12.7655   11.3221  -12.4064 C   0  0  0  0  0  0  0  0  0  0  0  0
   11.7899   11.1162  -11.4392 C   0  0  0  0  0  0  0  0  0  0  0  0
   11.7111    9.8843  -10.7882 C   0  0  0  0  0  0  0  0  0  0  0  0
   11.7017    7.1744   -9.4158 C   0  0  0  0  0  0  0  0  0  0  0  0
   11.6024    7.9351   -8.1829 C   0  0  0  0  0  0  0  0  0  0  0  0
   10.7505    7.2996   -7.3516 C   0  0  0  0  0  0  0  0  0  0  0  0
   10.1388    6.1753   -8.0655 C   0  0  0  0  0  0  0  0  0  0  0  0
   10.8815    6.0822   -9.2035 N   0  0  0  0  0  0  0  0  0  0  0  0
   11.4817    5.9765  -12.3829 C   0  0  0  0  0  0  0  0  0  0  0  0
   11.5599    4.6440  -12.4222 C   0  0  0  0  0  0  0  0  0  0  0  0
    6.7779    3.7870   -9.9203 C   0  0  0  0  0  0  0  0  0  0  0  0
    6.9960    4.7540   -9.0282 C   0  0  0  0  0  0  0  0  0  0  0  0
    8.0343    6.7748   -5.8292 C   0  0  0  0  0  0  0  0  0  0  0  0
    7.6999    6.8077   -4.4779 C   0  0  0  0  0  0  0  0  0  0  0  0
    7.7298    2.9999   -0.5897 H   0  0  0  0  0  0  0  0  0  0  0  0
    8.0474    3.2547   -2.3186 H   0  0  0  0  0  0  0  0  0  0  0  0
    5.3865    2.8295   -1.0550 H   0  0  0  0  0  0  0  0  0  0  0  0
    6.3760    1.6879   -2.0821 H   0  0  0  0  0  0  0  0  0  0  0  0
    4.1799    4.3113   -4.1079 H   0  0  0  0  0  0  0  0  0  0  0  0
    5.4499    5.0194   -2.9866 H   0  0  0  0  0  0  0  0  0  0  0  0
    2.7682    4.0714   -2.2321 H   0  0  0  0  0  0  0  0  0  0  0  0
    3.3554    5.7344   -2.3084 H   0  0  0  0  0  0  0  0  0  0  0  0
    5.1226    3.4933    1.1926 H   0  0  0  0  0  0  0  0  0  0  0  0
    1.4627    2.2198    1.4528 H   0  0  0  0  0  0  0  0  0  0  0  0
    4.5553   -1.1117    3.8991 H   0  0  0  0  0  0  0  0  0  0  0  0
    3.1494   -1.7974    3.0859 H   0  0  0  0  0  0  0  0  0  0  0  0
    4.3683   -1.5147    6.1985 H   0  0  0  0  0  0  0  0  0  0  0  0
    3.1402   -1.3842    8.2834 H   0  0  0  0  0  0  0  0  0  0  0  0
    0.8068   -0.7271    8.2921 H   0  0  0  0  0  0  0  0  0  0  0  0
   -0.3355   -0.2959    6.1973 H   0  0  0  0  0  0  0  0  0  0  0  0
    0.8639   -0.5038    4.1088 H   0  0  0  0  0  0  0  0  0  0  0  0
    5.2225    1.2936    3.0140 H   0  0  0  0  0  0  0  0  0  0  0  0
    4.1037    4.1723    3.1906 H   0  0  0  0  0  0  0  0  0  0  0  0
    2.4212    5.5620    3.4604 H   0  0  0  0  0  0  0  0  0  0  0  0
    1.8618    4.3673    2.2569 H   0  0  0  0  0  0  0  0  0  0  0  0
    1.1790    6.6638    1.7098 H   0  0  0  0  0  0  0  0  0  0  0  0
    2.1926    5.9094    0.4875 H   0  0  0  0  0  0  0  0  0  0  0  0
    5.0951    7.7630    1.4417 H   0  0  0  0  0  0  0  0  0  0  0  0
    4.4424    6.6185    0.2640 H   0  0  0  0  0  0  0  0  0  0  0  0
    5.7532    5.3600    1.7571 H   0  0  0  0  0  0  0  0  0  0  0  0
    4.9567    6.1757    3.1535 H   0  0  0  0  0  0  0  0  0  0  0  0
    7.8530    3.5433   -3.8215 H   0  0  0  0  0  0  0  0  0  0  0  0
    8.5817    3.4930   -6.1179 H   0  0  0  0  0  0  0  0  0  0  0  0
    8.3309    0.3032  -13.1406 H   0  0  0  0  0  0  0  0  0  0  0  0
    7.7342    0.5382  -15.4740 H   0  0  0  0  0  0  0  0  0  0  0  0
    6.5454    2.5070  -16.2408 H   0  0  0  0  0  0  0  0  0  0  0  0
    5.9330    4.2321  -14.6524 H   0  0  0  0  0  0  0  0  0  0  0  0
    6.6454    4.0664  -12.3508 H   0  0  0  0  0  0  0  0  0  0  0  0
    9.4678   -0.1273   -9.5315 H   0  0  0  0  0  0  0  0  0  0  0  0
   12.0787    0.3759   -9.3719 H   0  0  0  0  0  0  0  0  0  0  0  0
   10.6045    2.1124  -12.6826 H   0  0  0  0  0  0  0  0  0  0  0  0
   13.1225    4.2905   -8.5316 H   0  0  0  0  0  0  0  0  0  0  0  0
   14.7671    3.8480   -6.8076 H   0  0  0  0  0  0  0  0  0  0  0  0
   16.3392    2.0189   -7.0697 H   0  0  0  0  0  0  0  0  0  0  0  0
   16.2926    0.6615   -9.0794 H   0  0  0  0  0  0  0  0  0  0  0  0
   14.6934    1.1397  -10.8353 H   0  0  0  0  0  0  0  0  0  0  0  0
   14.2775    8.3283  -12.2687 H   0  0  0  0  0  0  0  0  0  0  0  0
   14.4040   10.4622  -13.4132 H   0  0  0  0  0  0  0  0  0  0  0  0
   12.8189   12.2246  -12.9041 H   0  0  0  0  0  0  0  0  0  0  0  0
   11.1265   11.8707  -11.2032 H   0  0  0  0  0  0  0  0  0  0  0  0
   10.9777    9.7358  -10.0775 H   0  0  0  0  0  0  0  0  0  0  0  0
   12.1004    8.8152   -7.9768 H   0  0  0  0  0  0  0  0  0  0  0  0
   10.5605    7.5626   -6.3719 H   0  0  0  0  0  0  0  0  0  0  0  0
   10.8383    5.3120   -9.8152 H   0  0  0  0  0  0  0  0  0  0  0  0
   10.8818    6.6230  -12.9188 H   0  0  0  0  0  0  0  0  0  0  0  0
   10.9805    4.0503  -13.0361 H   0  0  0  0  0  0  0  0  0  0  0  0
    5.8657    3.5978  -10.3644 H   0  0  0  0  0  0  0  0  0  0  0  0
    6.3424    5.4640   -8.6625 H   0  0  0  0  0  0  0  0  0  0  0  0
    7.9776    7.6317   -6.4015 H   0  0  0  0  0  0  0  0  0  0  0  0
    7.4350    7.7061   -4.0445 H   0  0  0  0  0  0  0  0  0  0  0  0
  1  2  2  0  0  0  0
  2  3  1  0  0  0  0
  2 31  1  0  0  0  0
  3  4  1  0  0  0  0
  4  5  1  0  0  0  0
  4 79  1  0  0  0  0
  4 80  1  0  0  0  0
  5  6  1  0  0  0  0
  5 81  1  0  0  0  0
  5 82  1  0  0  0  0
  6  7  1  0  0  0  0
  7  8  1  0  0  0  0
  7 83  1  0  0  0  0
  7 84  1  0  0  0  0
  8  9  1  0  0  0  0
  8 85  1  0  0  0  0
  8 86  1  0  0  0  0
  9 10  1  0  0  0  0
 10 11  2  0  0  0  0
 12 25  1  0  0  0  0
 12 13  1  0  0  0  0
 12 10  1  0  0  0  0
 12 87  1  6  0  0  0
 13 14  1  0  0  0  0
 13 24  2  0  0  0  0
 14 15  2  0  0  0  0
 14 88  1  0  0  0  0
 15 16  1  0  0  0  0
 16 17  1  0  0  0  0
 16 24  1  0  0  0  0
 17 18  1  0  0  0  0
 17 89  1  0  0  0  0
 17 90  1  0  0  0  0
 18 19  1  0  0  0  0
 18 23  2  0  0  0  0
 19 20  2  0  0  0  0
 19 91  1  0  0  0  0
 20 21  1  0  0  0  0
 20 92  1  0  0  0  0
 21 22  2  0  0  0  0
 21 93  1  0  0  0  0
 22 23  1  0  0  0  0
 22 94  1  0  0  0  0
 23 95  1  0  0  0  0
 24 96  1  0  0  0  0
 25 26  1  0  0  0  0
 25 30  1  0  0  0  0
 25 97  1  0  0  0  0
 26 27  1  0  0  0  0
 26 98  1  0  0  0  0
 26 99  1  0  0  0  0
 27 28  1  0  0  0  0
 27100  1  0  0  0  0
 27101  1  0  0  0  0
 28 29  1  0  0  0  0
 29 30  1  0  0  0  0
 29102  1  0  0  0  0
 29103  1  0  0  0  0
 30104  1  0  0  0  0
 30105  1  0  0  0  0
 31 32  1  0  0  0  0
 31 78  2  0  0  0  0
 32 33  2  0  0  0  0
 32106  1  0  0  0  0
 33 34  1  0  0  0  0
 33107  1  0  0  0  0
 34 35  1  0  0  0  0
 34 77  2  0  0  0  0
 35 36  1  0  0  0  0
 35 71  2  0  0  0  0
 36 37  2  0  0  0  0
 36 76  1  0  0  0  0
 37 38  1  0  0  0  0
 38 39  2  0  0  0  0
 38 75  1  0  0  0  0
 39 40  1  0  0  0  0
 39 46  1  0  0  0  0
 40 41  1  0  0  0  0
 40 45  2  0  0  0  0
 41 42  2  0  0  0  0
 41108  1  0  0  0  0
 42 43  1  0  0  0  0
 42109  1  0  0  0  0
 43 44  2  0  0  0  0
 43110  1  0  0  0  0
 44 45  1  0  0  0  0
 44111  1  0  0  0  0
 45112  1  0  0  0  0
 46 47  2  0  0  0  0
 46 50  1  0  0  0  0
 47 48  1  0  0  0  0
 47113  1  0  0  0  0
 48 49  2  0  0  0  0
 48114  1  0  0  0  0
 49 50  1  0  0  0  0
 49 51  1  0  0  0  0
 50115  1  0  0  0  0
 51 52  1  0  0  0  0
 51 58  2  0  0  0  0
 52 53  1  0  0  0  0
 52 57  2  0  0  0  0
 53 54  2  0  0  0  0
 53116  1  0  0  0  0
 54 55  1  0  0  0  0
 54117  1  0  0  0  0
 55 56  2  0  0  0  0
 55118  1  0  0  0  0
 56 57  1  0  0  0  0
 56119  1  0  0  0  0
 57120  1  0  0  0  0
 58 59  1  0  0  0  0
 58 74  1  0  0  0  0
 59 60  2  0  0  0  0
 60 61  1  0  0  0  0
 60 73  1  0  0  0  0
 61 62  1  0  0  0  0
 61 68  2  0  0  0  0
 62 63  1  0  0  0  0
 62 67  2  0  0  0  0
 63 64  2  0  0  0  0
 63121  1  0  0  0  0
 64 65  1  0  0  0  0
 64122  1  0  0  0  0
 65 66  2  0  0  0  0
 65123  1  0  0  0  0
 66 67  1  0  0  0  0
 66124  1  0  0  0  0
 67125  1  0  0  0  0
 68 69  1  0  0  0  0
 68 72  1  0  0  0  0
 69 70  2  0  0  0  0
 69126  1  0  0  0  0
 70 71  1  0  0  0  0
 70127  1  0  0  0  0
 71 72  1  0  0  0  0
 72128  1  0  0  0  0
 73 74  2  0  0  0  0
 73129  1  0  0  0  0
 74130  1  0  0  0  0
 75 76  2  0  0  0  0
 75131  1  0  0  0  0
 76132  1  0  0  0  0
 77 78  1  0  0  0  0
 77133  1  0  0  0  0
 78134  1  0  0  0  0
M  CHG  1  25   1
M  END
$$$$
