2_5_4065
 OpenBabel04152301373D

139149  0  0  1  0  0  0  0  0999 V2000
    0.4639   -0.6055   -0.7669 C   0  0  0  0  0  0  0  0  0  0  0  0
    0.3400   -2.1291   -0.7673 C   0  0  0  0  0  0  0  0  0  0  0  0
    0.7415   -2.8391    0.5676 C   0  0  2  0  0  0  0  0  0  0  0  0
   -0.4499   -2.7249    1.5383 C   0  0  0  0  0  0  0  0  0  0  0  0
   -1.6026   -2.9511    1.1770 O   0  0  0  0  0  0  0  0  0  0  0  0
   -0.1424   -2.3882    2.8186 O   0  0  0  0  0  0  0  0  0  0  0  0
   -1.2667   -2.2420    3.7186 C   0  0  0  0  0  0  0  0  0  0  0  0
   -1.0794   -1.1146    4.7395 C   0  0  0  0  0  0  0  0  0  0  0  0
   -1.0580    0.2266    4.2659 O   0  0  0  0  0  0  0  0  0  0  0  0
   -0.2625    0.5121    3.1314 C   0  0  0  0  0  0  0  0  0  0  0  0
    1.2227    0.1239    3.1562 C   0  0  0  0  0  0  0  0  0  0  0  0
    1.8636   -0.3296    4.3250 O   0  0  0  0  0  0  0  0  0  0  0  0
    1.9261    0.4983    5.4695 C   0  0  0  0  0  0  0  0  0  0  0  0
    2.1649    2.0148    5.3860 C   0  0  0  0  0  0  0  0  0  0  0  0
    1.6129    2.6865    4.2494 O   0  0  0  0  0  0  0  0  0  0  0  0
    2.5116    3.0680    3.2999 C   0  0  0  0  0  0  0  0  0  0  0  0
    3.7152    2.9230    3.3178 O   0  0  0  0  0  0  0  0  0  0  0  0
    1.7489    3.4931    2.1048 C   0  0  0  0  0  0  0  0  0  0  0  0
    1.9248    2.7874    0.9043 C   0  0  0  0  0  0  0  0  0  0  0  0
    1.1617    3.1131   -0.2172 C   0  0  0  0  0  0  0  0  0  0  0  0
    0.2608    4.1820   -0.1550 C   0  0  0  0  0  0  0  0  0  0  0  0
   -0.4170    4.6716   -1.3761 C   0  0  0  0  0  0  0  0  0  0  0  0
    0.2239    5.7843   -2.1518 C   0  0  0  0  0  0  0  0  0  0  0  0
   -0.2547    6.4830   -3.1476 N   0  0  0  0  0  0  0  0  0  0  0  0
    0.7432    7.3891   -3.4801 C   0  0  0  0  0  0  0  0  0  0  0  0
    0.7356    8.3352   -4.4478 C   0  0  0  0  0  0  0  0  0  0  0  0
    1.9511    9.2095   -4.5643 C   0  0  0  0  0  0  0  0  0  0  0  0
    3.1668    8.7123   -5.0589 C   0  0  0  0  0  0  0  0  0  0  0  0
    4.2854    9.5439   -5.1460 C   0  0  0  0  0  0  0  0  0  0  0  0
    4.1896   10.8851   -4.7757 C   0  0  0  0  0  0  0  0  0  0  0  0
    2.9800   11.3962   -4.3083 C   0  0  0  0  0  0  0  0  0  0  0  0
    1.8691   10.5605   -4.1922 C   0  0  0  0  0  0  0  0  0  0  0  0
   -0.3767    8.5868   -5.3230 C   0  0  0  0  0  0  0  0  0  0  0  0
   -0.4815    9.5257   -6.3339 C   0  0  0  0  0  0  0  0  0  0  0  0
   -1.7776    9.4617   -6.8541 C   0  0  0  0  0  0  0  0  0  0  0  0
   -2.4558    8.4361   -6.2147 C   0  0  0  0  0  0  0  0  0  0  0  0
   -1.5838    7.9077   -5.2784 N   0  0  0  0  0  0  0  0  0  0  0  0
   -3.8054    7.9812   -6.4296 C   0  0  0  0  0  0  0  0  0  0  0  0
   -4.6301    8.7061   -7.4579 C   0  0  0  0  0  0  0  0  0  0  0  0
   -5.6914    9.5441   -7.0829 C   0  0  0  0  0  0  0  0  0  0  0  0
   -6.4128   10.2466   -8.0512 C   0  0  0  0  0  0  0  0  0  0  0  0
   -6.0595   10.1460   -9.3966 C   0  0  0  0  0  0  0  0  0  0  0  0
   -4.9962    9.3307   -9.7798 C   0  0  0  0  0  0  0  0  0  0  0  0
   -4.2936    8.6037   -8.8176 C   0  0  0  0  0  0  0  0  0  0  0  0
   -4.3770    6.9312   -5.7901 C   0  0  0  0  0  0  0  0  0  0  0  0
   -3.8314    6.0913   -4.8253 N   0  0  0  0  0  0  0  0  0  0  0  0
   -4.7811    5.2449   -4.5065 C   0  0  0  0  0  0  0  0  0  0  0  0
   -4.7468    4.0977   -3.5273 C   0  0  0  0  0  0  0  0  0  0  0  0
   -5.9523    3.2482   -3.3278 C   0  0  0  0  0  0  0  0  0  0  0  0
   -6.4076    2.3993   -4.3482 C   0  0  0  0  0  0  0  0  0  0  0  0
   -7.5798    1.6567   -4.1824 C   0  0  0  0  0  0  0  0  0  0  0  0
   -8.2888    1.7269   -2.9843 C   0  0  0  0  0  0  0  0  0  0  0  0
   -7.8339    2.5462   -1.9534 C   0  0  0  0  0  0  0  0  0  0  0  0
   -6.6806    3.3141   -2.1288 C   0  0  0  0  0  0  0  0  0  0  0  0
   -3.6351    3.8853   -2.7952 C   0  0  0  0  0  0  0  0  0  0  0  0
   -3.4684    2.8553   -1.7706 C   0  0  0  0  0  0  0  0  0  0  0  0
   -2.2911    3.0392   -1.1462 C   0  0  0  0  0  0  0  0  0  0  0  0
   -1.6016    4.1692   -1.7654 C   0  0  0  0  0  0  0  0  0  0  0  0
   -2.4449    4.5709   -2.7720 N   0  0  0  0  0  0  0  0  0  0  0  0
   -6.0480    5.4714   -5.2197 C   0  0  0  0  0  0  0  0  0  0  0  0
   -5.7344    6.4829   -6.0176 C   0  0  0  0  0  0  0  0  0  0  0  0
    1.8477    7.1594   -2.5740 C   0  0  0  0  0  0  0  0  0  0  0  0
    1.5883    6.1586   -1.7462 C   0  0  0  0  0  0  0  0  0  0  0  0
    0.0990    4.8908    1.0494 C   0  0  0  0  0  0  0  0  0  0  0  0
    0.8333    4.5410    2.1836 C   0  0  0  0  0  0  0  0  0  0  0  0
    2.1516   -2.4079    0.9935 C   0  0  0  0  0  0  0  0  0  0  0  0
    3.0690   -3.3751    0.2643 C   0  0  0  0  0  0  0  0  0  0  0  0
    2.3792   -4.6584    0.3529 N   0  3  1  0  0  0  0  0  0  0  0  0
    2.8372   -5.4878    1.5010 C   0  0  0  0  0  0  0  0  0  0  0  0
    2.9702   -4.8423    2.8768 C   0  0  0  0  0  0  0  0  0  0  0  0
    4.1795   -4.2814    3.1803 N   0  0  0  0  0  0  0  0  0  0  0  0
    4.3075   -3.6103    4.3522 C   0  0  0  0  0  0  0  0  0  0  0  0
    5.6598   -3.0484    4.6778 C   0  0  0  0  0  0  0  0  0  0  0  0
    3.2605   -3.4825    5.2561 C   0  0  0  0  0  0  0  0  0  0  0  0
    2.0361   -4.0672    4.9517 C   0  0  0  0  0  0  0  0  0  0  0  0
    1.8916   -4.7627    3.7556 C   0  0  0  0  0  0  0  0  0  0  0  0
    0.6957   -5.3383    3.4439 O   0  0  0  0  0  0  0  0  0  0  0  0
    0.9341   -4.3630    0.3443 C   0  0  0  0  0  0  0  0  0  0  0  0
    0.1667   -0.2232   -1.7211 H   0  0  0  0  0  0  0  0  0  0  0  0
    1.4796   -0.3303   -0.5730 H   0  0  0  0  0  0  0  0  0  0  0  0
   -0.1679   -0.1965   -0.0063 H   0  0  0  0  0  0  0  0  0  0  0  0
    0.9681   -2.5105   -1.5451 H   0  0  0  0  0  0  0  0  0  0  0  0
   -0.6996   -2.3387   -0.9097 H   0  0  0  0  0  0  0  0  0  0  0  0
   -1.4002   -3.1620    4.2484 H   0  0  0  0  0  0  0  0  0  0  0  0
   -2.1205   -1.9937    3.1234 H   0  0  0  0  0  0  0  0  0  0  0  0
   -0.1488   -1.2896    5.2378 H   0  0  0  0  0  0  0  0  0  0  0  0
   -1.9552   -1.1646    5.3522 H   0  0  0  0  0  0  0  0  0  0  0  0
   -0.3092    1.5691    2.9718 H   0  0  0  0  0  0  0  0  0  0  0  0
   -0.6789   -0.1022    2.3606 H   0  0  0  0  0  0  0  0  0  0  0  0
    1.7626    0.9912    2.8379 H   0  0  0  0  0  0  0  0  0  0  0  0
    1.2318   -0.7540    2.5445 H   0  0  0  0  0  0  0  0  0  0  0  0
    2.7166    0.1070    6.0752 H   0  0  0  0  0  0  0  0  0  0  0  0
    0.9170    0.4566    5.8229 H   0  0  0  0  0  0  0  0  0  0  0  0
    3.2224    2.1774    5.3777 H   0  0  0  0  0  0  0  0  0  0  0  0
    1.6583    2.4283    6.2329 H   0  0  0  0  0  0  0  0  0  0  0  0
    2.6198    2.0263    0.8512 H   0  0  0  0  0  0  0  0  0  0  0  0
    1.2611    2.5685   -1.0882 H   0  0  0  0  0  0  0  0  0  0  0  0
    3.2345    7.7274   -5.3597 H   0  0  0  0  0  0  0  0  0  0  0  0
    5.1838    9.1656   -5.4847 H   0  0  0  0  0  0  0  0  0  0  0  0
    5.0153   11.4999   -4.8478 H   0  0  0  0  0  0  0  0  0  0  0  0
    2.9063   12.3922   -4.0483 H   0  0  0  0  0  0  0  0  0  0  0  0
    0.9798   10.9385   -3.8298 H   0  0  0  0  0  0  0  0  0  0  0  0
    0.2669   10.1625   -6.6491 H   0  0  0  0  0  0  0  0  0  0  0  0
   -2.1638   10.0742   -7.5894 H   0  0  0  0  0  0  0  0  0  0  0  0
   -1.7904    7.1607   -4.6713 H   0  0  0  0  0  0  0  0  0  0  0  0
   -5.9404    9.6420   -6.0862 H   0  0  0  0  0  0  0  0  0  0  0  0
   -7.2084   10.8409   -7.7705 H   0  0  0  0  0  0  0  0  0  0  0  0
   -6.5859   10.6757  -10.1089 H   0  0  0  0  0  0  0  0  0  0  0  0
   -4.7285    9.2646  -10.7743 H   0  0  0  0  0  0  0  0  0  0  0  0
   -3.5200    7.9854   -9.1078 H   0  0  0  0  0  0  0  0  0  0  0  0
   -5.8729    2.3228   -5.2275 H   0  0  0  0  0  0  0  0  0  0  0  0
   -7.9211    1.0552   -4.9484 H   0  0  0  0  0  0  0  0  0  0  0  0
   -9.1503    1.1722   -2.8610 H   0  0  0  0  0  0  0  0  0  0  0  0
   -8.3492    2.5857   -1.0601 H   0  0  0  0  0  0  0  0  0  0  0  0
   -6.3605    3.9360   -1.3700 H   0  0  0  0  0  0  0  0  0  0  0  0
   -4.1463    2.1062   -1.5600 H   0  0  0  0  0  0  0  0  0  0  0  0
   -1.9337    2.4751   -0.3594 H   0  0  0  0  0  0  0  0  0  0  0  0
   -2.2185    5.2814   -3.4148 H   0  0  0  0  0  0  0  0  0  0  0  0
   -6.9465    4.9729   -5.1239 H   0  0  0  0  0  0  0  0  0  0  0  0
   -6.3758    6.8974   -6.7118 H   0  0  0  0  0  0  0  0  0  0  0  0
    2.7239    7.7047   -2.5729 H   0  0  0  0  0  0  0  0  0  0  0  0
    2.1854    5.7492   -1.0107 H   0  0  0  0  0  0  0  0  0  0  0  0
   -0.5686    5.6764    1.0947 H   0  0  0  0  0  0  0  0  0  0  0  0
    0.6999    5.0522    3.0701 H   0  0  0  0  0  0  0  0  0  0  0  0
    2.2721   -2.4953    2.0531 H   0  0  0  0  0  0  0  0  0  0  0  0
    2.3587   -1.3855    0.7552 H   0  0  0  0  0  0  0  0  0  0  0  0
    4.0252   -3.4244    0.7419 H   0  0  0  0  0  0  0  0  0  0  0  0
    3.2562   -3.0793   -0.7468 H   0  0  0  0  0  0  0  0  0  0  0  0
    2.6054   -5.2506   -0.4462 H   0  0  0  0  0  0  0  0  0  0  0  0
    3.8005   -5.8752    1.2426 H   0  0  0  0  0  0  0  0  0  0  0  0
    2.0513   -6.2025    1.6292 H   0  0  0  0  0  0  0  0  0  0  0  0
    6.3312   -3.2426    3.8676 H   0  0  0  0  0  0  0  0  0  0  0  0
    6.0327   -3.5096    5.5684 H   0  0  0  0  0  0  0  0  0  0  0  0
    5.5801   -1.9922    4.8296 H   0  0  0  0  0  0  0  0  0  0  0  0
    3.3891   -2.9626    6.1383 H   0  0  0  0  0  0  0  0  0  0  0  0
    1.2426   -3.9860    5.6065 H   0  0  0  0  0  0  0  0  0  0  0  0
    0.5971   -5.8070    2.6386 H   0  0  0  0  0  0  0  0  0  0  0  0
    0.5135   -4.6457   -0.5981 H   0  0  0  0  0  0  0  0  0  0  0  0
    0.4431   -4.9122    1.1203 H   0  0  0  0  0  0  0  0  0  0  0  0
  1  2  1  0  0  0  0
  1 79  1  0  0  0  0
  1 80  1  0  0  0  0
  1 81  1  0  0  0  0
  2  3  1  0  0  0  0
  2 82  1  0  0  0  0
  2 83  1  0  0  0  0
  3  4  1  1  0  0  0
  3 66  1  0  0  0  0
  3 78  1  0  0  0  0
  4  5  2  0  0  0  0
  4  6  1  0  0  0  0
  6  7  1  0  0  0  0
  7  8  1  0  0  0  0
  7 84  1  0  0  0  0
  7 85  1  0  0  0  0
  8  9  1  0  0  0  0
  8 86  1  0  0  0  0
  8 87  1  0  0  0  0
  9 10  1  0  0  0  0
 10 11  1  0  0  0  0
 10 88  1  0  0  0  0
 10 89  1  0  0  0  0
 11 12  1  0  0  0  0
 11 90  1  0  0  0  0
 11 91  1  0  0  0  0
 12 13  1  0  0  0  0
 13 14  1  0  0  0  0
 13 92  1  0  0  0  0
 13 93  1  0  0  0  0
 14 15  1  0  0  0  0
 14 94  1  0  0  0  0
 14 95  1  0  0  0  0
 15 16  1  0  0  0  0
 16 17  2  0  0  0  0
 16 18  1  0  0  0  0
 18 19  1  0  0  0  0
 18 65  2  0  0  0  0
 19 20  2  0  0  0  0
 19 96  1  0  0  0  0
 20 21  1  0  0  0  0
 20 97  1  0  0  0  0
 21 22  1  0  0  0  0
 21 64  2  0  0  0  0
 22 23  1  0  0  0  0
 22 58  2  0  0  0  0
 23 24  2  0  0  0  0
 23 63  1  0  0  0  0
 24 25  1  0  0  0  0
 25 26  2  0  0  0  0
 25 62  1  0  0  0  0
 26 27  1  0  0  0  0
 26 33  1  0  0  0  0
 27 28  1  0  0  0  0
 27 32  2  0  0  0  0
 28 29  2  0  0  0  0
 28 98  1  0  0  0  0
 29 30  1  0  0  0  0
 29 99  1  0  0  0  0
 30 31  2  0  0  0  0
 30100  1  0  0  0  0
 31 32  1  0  0  0  0
 31101  1  0  0  0  0
 32102  1  0  0  0  0
 33 34  2  0  0  0  0
 33 37  1  0  0  0  0
 34 35  1  0  0  0  0
 34103  1  0  0  0  0
 35 36  2  0  0  0  0
 35104  1  0  0  0  0
 36 37  1  0  0  0  0
 36 38  1  0  0  0  0
 37105  1  0  0  0  0
 38 39  1  0  0  0  0
 38 45  2  0  0  0  0
 39 40  1  0  0  0  0
 39 44  2  0  0  0  0
 40 41  2  0  0  0  0
 40106  1  0  0  0  0
 41 42  1  0  0  0  0
 41107  1  0  0  0  0
 42 43  2  0  0  0  0
 42108  1  0  0  0  0
 43 44  1  0  0  0  0
 43109  1  0  0  0  0
 44110  1  0  0  0  0
 45 46  1  0  0  0  0
 45 61  1  0  0  0  0
 46 47  2  0  0  0  0
 47 48  1  0  0  0  0
 47 60  1  0  0  0  0
 48 49  1  0  0  0  0
 48 55  2  0  0  0  0
 49 50  1  0  0  0  0
 49 54  2  0  0  0  0
 50 51  2  0  0  0  0
 50111  1  0  0  0  0
 51 52  1  0  0  0  0
 51112  1  0  0  0  0
 52 53  2  0  0  0  0
 52113  1  0  0  0  0
 53 54  1  0  0  0  0
 53114  1  0  0  0  0
 54115  1  0  0  0  0
 55 56  1  0  0  0  0
 55 59  1  0  0  0  0
 56 57  2  0  0  0  0
 56116  1  0  0  0  0
 57 58  1  0  0  0  0
 57117  1  0  0  0  0
 58 59  1  0  0  0  0
 59118  1  0  0  0  0
 60 61  2  0  0  0  0
 60119  1  0  0  0  0
 61120  1  0  0  0  0
 62 63  2  0  0  0  0
 62121  1  0  0  0  0
 63122  1  0  0  0  0
 64 65  1  0  0  0  0
 64123  1  0  0  0  0
 65124  1  0  0  0  0
 66 67  1  0  0  0  0
 66125  1  0  0  0  0
 66126  1  0  0  0  0
 67 68  1  0  0  0  0
 67127  1  0  0  0  0
 67128  1  0  0  0  0
 68 69  1  0  0  0  0
 68 78  1  0  0  0  0
 68129  1  6  0  0  0
 69 70  1  0  0  0  0
 69130  1  0  0  0  0
 69131  1  0  0  0  0
 70 71  1  0  0  0  0
 70 76  2  0  0  0  0
 71 72  2  0  0  0  0
 72 73  1  0  0  0  0
 72 74  1  0  0  0  0
 73132  1  0  0  0  0
 73133  1  0  0  0  0
 73134  1  0  0  0  0
 74 75  2  0  0  0  0
 74135  1  0  0  0  0
 75 76  1  0  0  0  0
 75136  1  0  0  0  0
 76 77  1  0  0  0  0
 77137  1  0  0  0  0
 78138  1  0  0  0  0
 78139  1  0  0  0  0
M  CHG  1  68   1
M  END
$$$$
