2_5_9337
 OpenBabel04152301373D

134142  0  0  1  0  0  0  0  0999 V2000
    0.6063   -2.6278   -2.4051 C   0  0  0  0  0  0  0  0  0  0  0  0
   -0.4971   -2.1705   -2.2388 C   0  0  0  0  0  0  0  0  0  0  0  0
   -1.8314   -1.5779   -2.0157 C   0  0  0  0  0  0  0  0  0  0  0  0
   -2.5196   -2.1274   -0.8479 N   0  3  2  0  0  0  0  0  0  0  0  0
   -3.9851   -1.8296   -0.7878 C   0  0  0  0  0  0  0  0  0  0  0  0
   -4.9449   -2.1020   -1.9503 C   0  0  0  0  0  0  0  0  0  0  0  0
   -6.1606   -2.0838   -1.7622 O   0  0  0  0  0  0  0  0  0  0  0  0
   -4.3861   -2.3149   -3.1613 O   0  0  0  0  0  0  0  0  0  0  0  0
   -5.2646   -2.5931   -4.2698 C   0  0  0  0  0  0  0  0  0  0  0  0
   -5.0980   -3.9913   -4.8869 C   0  0  0  0  0  0  0  0  0  0  0  0
   -5.1625   -5.1257   -4.0265 O   0  0  0  0  0  0  0  0  0  0  0  0
   -4.3252   -5.1552   -2.8771 C   0  0  0  0  0  0  0  0  0  0  0  0
   -2.8462   -4.7739   -3.0234 C   0  0  0  0  0  0  0  0  0  0  0  0
   -2.5034   -4.2320   -4.2802 O   0  0  0  0  0  0  0  0  0  0  0  0
   -1.2852   -4.6435   -4.8777 C   0  0  0  0  0  0  0  0  0  0  0  0
   -1.1660   -6.1244   -5.2860 C   0  0  0  0  0  0  0  0  0  0  0  0
   -1.5612   -7.0978   -4.3015 O   0  0  0  0  0  0  0  0  0  0  0  0
   -0.7467   -7.2457   -3.2269 C   0  0  0  0  0  0  0  0  0  0  0  0
    0.3350   -6.7129   -3.0564 O   0  0  0  0  0  0  0  0  0  0  0  0
   -1.5093   -7.9599   -2.1666 C   0  0  0  0  0  0  0  0  0  0  0  0
   -1.6157   -7.3705   -0.8960 C   0  0  0  0  0  0  0  0  0  0  0  0
   -2.2687   -8.0419    0.1405 C   0  0  0  0  0  0  0  0  0  0  0  0
   -2.7868   -9.3246   -0.0778 C   0  0  0  0  0  0  0  0  0  0  0  0
   -3.0953  -10.1969    1.0869 C   0  0  0  0  0  0  0  0  0  0  0  0
   -2.0657  -11.2235    1.4923 C   0  0  0  0  0  0  0  0  0  0  0  0
   -2.0987  -12.1035    2.4614 N   0  0  0  0  0  0  0  0  0  0  0  0
   -0.9016  -12.8057    2.3724 C   0  0  0  0  0  0  0  0  0  0  0  0
   -0.4272  -13.7885    3.1745 C   0  0  0  0  0  0  0  0  0  0  0  0
    0.9139  -14.3784    2.8266 C   0  0  0  0  0  0  0  0  0  0  0  0
    2.0993  -13.6345    2.9478 C   0  0  0  0  0  0  0  0  0  0  0  0
    3.3290  -14.1992    2.6009 C   0  0  0  0  0  0  0  0  0  0  0  0
    3.3928  -15.5250    2.1742 C   0  0  0  0  0  0  0  0  0  0  0  0
    2.2279  -16.2843    2.0806 C   0  0  0  0  0  0  0  0  0  0  0  0
    0.9939  -15.7105    2.3911 C   0  0  0  0  0  0  0  0  0  0  0  0
   -1.1373  -14.3215    4.3062 C   0  0  0  0  0  0  0  0  0  0  0  0
   -0.7340  -15.3070    5.1903 C   0  0  0  0  0  0  0  0  0  0  0  0
   -1.7857  -15.5532    6.0785 C   0  0  0  0  0  0  0  0  0  0  0  0
   -2.8098  -14.6622    5.8008 C   0  0  0  0  0  0  0  0  0  0  0  0
   -2.4024  -13.9196    4.7045 N   0  0  0  0  0  0  0  0  0  0  0  0
   -4.0684  -14.4966    6.4822 C   0  0  0  0  0  0  0  0  0  0  0  0
   -4.3447  -15.3599    7.6864 C   0  0  0  0  0  0  0  0  0  0  0  0
   -5.3711  -16.3183    7.6888 C   0  0  0  0  0  0  0  0  0  0  0  0
   -5.6345  -17.0719    8.8356 C   0  0  0  0  0  0  0  0  0  0  0  0
   -4.8419  -16.9156    9.9719 C   0  0  0  0  0  0  0  0  0  0  0  0
   -3.7898  -16.0023    9.9675 C   0  0  0  0  0  0  0  0  0  0  0  0
   -3.5518  -15.2186    8.8372 C   0  0  0  0  0  0  0  0  0  0  0  0
   -5.0107  -13.5808    6.1436 C   0  0  0  0  0  0  0  0  0  0  0  0
   -4.9952  -12.6428    5.1161 N   0  0  0  0  0  0  0  0  0  0  0  0
   -6.1415  -12.0095    5.1897 C   0  0  0  0  0  0  0  0  0  0  0  0
   -6.6544  -10.8580    4.3606 C   0  0  0  0  0  0  0  0  0  0  0  0
   -7.9954  -10.2733    4.6414 C   0  0  0  0  0  0  0  0  0  0  0  0
   -8.2501   -9.6015    5.8478 C   0  0  0  0  0  0  0  0  0  0  0  0
   -9.5312   -9.1249    6.1389 C   0  0  0  0  0  0  0  0  0  0  0  0
  -10.5603   -9.2765    5.2114 C   0  0  0  0  0  0  0  0  0  0  0  0
  -10.3142   -9.9138    3.9970 C   0  0  0  0  0  0  0  0  0  0  0  0
   -9.0438  -10.4237    3.7198 C   0  0  0  0  0  0  0  0  0  0  0  0
   -5.8960  -10.3721    3.3574 C   0  0  0  0  0  0  0  0  0  0  0  0
   -6.2512   -9.2584    2.4786 C   0  0  0  0  0  0  0  0  0  0  0  0
   -5.2836   -9.0917    1.5586 C   0  0  0  0  0  0  0  0  0  0  0  0
   -4.2252  -10.0676    1.8052 C   0  0  0  0  0  0  0  0  0  0  0  0
   -4.6643  -10.7728    2.9002 N   0  0  0  0  0  0  0  0  0  0  0  0
   -7.0289  -12.5016    6.2545 C   0  0  0  0  0  0  0  0  0  0  0  0
   -6.2686  -13.4146    6.8406 C   0  0  0  0  0  0  0  0  0  0  0  0
   -0.1868  -12.2838    1.2298 C   0  0  0  0  0  0  0  0  0  0  0  0
   -0.8331  -11.2651    0.6872 C   0  0  0  0  0  0  0  0  0  0  0  0
   -2.7687   -9.8643   -1.3782 C   0  0  0  0  0  0  0  0  0  0  0  0
   -2.1297   -9.1840   -2.4219 C   0  0  0  0  0  0  0  0  0  0  0  0
   -1.8928   -1.8748    0.5093 C   0  0  2  0  0  0  0  0  0  0  0  0
   -2.5058   -0.7889    1.4115 C   0  0  0  0  0  0  0  0  0  0  0  0
   -0.3469   -1.8197    0.6169 C   0  0  0  0  0  0  0  0  0  0  0  0
    0.2870   -2.7865    1.0567 O   0  0  0  0  0  0  0  0  0  0  0  0
    0.3667   -0.6817    0.3321 N   0  0  0  0  0  0  0  0  0  0  0  0
   -0.0308    0.4653   -0.4587 C   0  0  0  0  0  0  0  0  0  0  0  0
    0.7760    1.7290   -0.2243 C   0  0  0  0  0  0  0  0  0  0  0  0
    2.1822    1.6212   -0.7940 C   0  0  0  0  0  0  0  0  0  0  0  0
    1.5158   -3.0047   -2.5422 H   0  0  0  0  0  0  0  0  0  0  0  0
   -2.4331   -1.7599   -2.8815 H   0  0  0  0  0  0  0  0  0  0  0  0
   -1.6885   -0.5326   -1.8371 H   0  0  0  0  0  0  0  0  0  0  0  0
   -2.3917   -3.1225   -1.0317 H   0  0  0  0  0  0  0  0  0  0  0  0
   -4.0639   -0.7828   -0.5808 H   0  0  0  0  0  0  0  0  0  0  0  0
   -4.3175   -2.5464   -0.0662 H   0  0  0  0  0  0  0  0  0  0  0  0
   -5.0775   -1.8674   -5.0335 H   0  0  0  0  0  0  0  0  0  0  0  0
   -6.2614   -2.5504   -3.8833 H   0  0  0  0  0  0  0  0  0  0  0  0
   -4.1421   -4.0129   -5.3672 H   0  0  0  0  0  0  0  0  0  0  0  0
   -5.9489   -4.0987   -5.5267 H   0  0  0  0  0  0  0  0  0  0  0  0
   -4.3550   -6.1535   -2.4932 H   0  0  0  0  0  0  0  0  0  0  0  0
   -4.7265   -4.3884   -2.2479 H   0  0  0  0  0  0  0  0  0  0  0  0
   -2.2572   -5.6534   -2.8667 H   0  0  0  0  0  0  0  0  0  0  0  0
   -2.6561   -4.0088   -2.2999 H   0  0  0  0  0  0  0  0  0  0  0  0
   -0.4994   -4.4374   -4.1813 H   0  0  0  0  0  0  0  0  0  0  0  0
   -1.2312   -4.0988   -5.7971 H   0  0  0  0  0  0  0  0  0  0  0  0
   -0.1422   -6.3113   -5.5347 H   0  0  0  0  0  0  0  0  0  0  0  0
   -1.8516   -6.2495   -6.0979 H   0  0  0  0  0  0  0  0  0  0  0  0
   -1.2095   -6.4369   -0.7274 H   0  0  0  0  0  0  0  0  0  0  0  0
   -2.3691   -7.5938    1.0647 H   0  0  0  0  0  0  0  0  0  0  0  0
    2.0614  -12.6636    3.2957 H   0  0  0  0  0  0  0  0  0  0  0  0
    4.1908  -13.6346    2.6605 H   0  0  0  0  0  0  0  0  0  0  0  0
    4.3030  -15.9442    1.9276 H   0  0  0  0  0  0  0  0  0  0  0  0
    2.2776  -17.2708    1.7817 H   0  0  0  0  0  0  0  0  0  0  0  0
    0.1322  -16.2709    2.2996 H   0  0  0  0  0  0  0  0  0  0  0  0
    0.1840  -15.7785    5.1935 H   0  0  0  0  0  0  0  0  0  0  0  0
   -1.7971  -16.2756    6.8154 H   0  0  0  0  0  0  0  0  0  0  0  0
   -2.9328  -13.2116    4.2725 H   0  0  0  0  0  0  0  0  0  0  0  0
   -5.9350  -16.4671    6.8374 H   0  0  0  0  0  0  0  0  0  0  0  0
   -6.4167  -17.7450    8.8415 H   0  0  0  0  0  0  0  0  0  0  0  0
   -5.0346  -17.4765   10.8164 H   0  0  0  0  0  0  0  0  0  0  0  0
   -3.1868  -15.9053   10.7994 H   0  0  0  0  0  0  0  0  0  0  0  0
   -2.7850  -14.5279    8.8471 H   0  0  0  0  0  0  0  0  0  0  0  0
   -7.4848   -9.4585    6.5252 H   0  0  0  0  0  0  0  0  0  0  0  0
   -9.7154   -8.6602    7.0417 H   0  0  0  0  0  0  0  0  0  0  0  0
  -11.5040   -8.9170    5.4239 H   0  0  0  0  0  0  0  0  0  0  0  0
  -11.0711  -10.0091    3.3020 H   0  0  0  0  0  0  0  0  0  0  0  0
   -8.8741  -10.9159    2.8287 H   0  0  0  0  0  0  0  0  0  0  0  0
   -7.1092   -8.6897    2.5525 H   0  0  0  0  0  0  0  0  0  0  0  0
   -5.2885   -8.3893    0.8025 H   0  0  0  0  0  0  0  0  0  0  0  0
   -4.1447  -11.4973    3.3177 H   0  0  0  0  0  0  0  0  0  0  0  0
   -7.9921  -12.2115    6.4849 H   0  0  0  0  0  0  0  0  0  0  0  0
   -6.5387  -13.9405    7.6865 H   0  0  0  0  0  0  0  0  0  0  0  0
    0.7105  -12.6571    0.8826 H   0  0  0  0  0  0  0  0  0  0  0  0
   -0.5478  -10.6574   -0.0966 H   0  0  0  0  0  0  0  0  0  0  0  0
   -3.2301  -10.7686   -1.5635 H   0  0  0  0  0  0  0  0  0  0  0  0
   -2.1175   -9.5846   -3.3729 H   0  0  0  0  0  0  0  0  0  0  0  0
   -2.1980   -2.8213    0.9041 H   0  0  0  0  0  0  0  0  0  0  0  0
   -2.2231    0.1773    1.0491 H   0  0  0  0  0  0  0  0  0  0  0  0
   -2.1483   -0.9131    2.4123 H   0  0  0  0  0  0  0  0  0  0  0  0
   -3.5722   -0.8760    1.4003 H   0  0  0  0  0  0  0  0  0  0  0  0
    1.2715   -0.6394    0.7177 H   0  0  0  0  0  0  0  0  0  0  0  0
   -1.0547    0.6813   -0.2355 H   0  0  0  0  0  0  0  0  0  0  0  0
    0.1387    0.1926   -1.4794 H   0  0  0  0  0  0  0  0  0  0  0  0
    0.8426    1.9060    0.8289 H   0  0  0  0  0  0  0  0  0  0  0  0
    0.2789    2.5355   -0.7216 H   0  0  0  0  0  0  0  0  0  0  0  0
    2.7019    0.8197   -0.3119 H   0  0  0  0  0  0  0  0  0  0  0  0
    2.7065    2.5386   -0.6256 H   0  0  0  0  0  0  0  0  0  0  0  0
    2.1274    1.4295   -1.8453 H   0  0  0  0  0  0  0  0  0  0  0  0
  1  2  3  0  0  0  0
  1 76  1  0  0  0  0
  2  3  1  0  0  0  0
  3  4  1  0  0  0  0
  3 77  1  0  0  0  0
  3 78  1  0  0  0  0
  4  5  1  0  0  0  0
  4 79  1  6  0  0  0
  5  6  1  0  0  0  0
  5 80  1  0  0  0  0
  5 81  1  0  0  0  0
  6  7  2  0  0  0  0
  6  8  1  0  0  0  0
  8  9  1  0  0  0  0
  9 10  1  0  0  0  0
  9 82  1  0  0  0  0
  9 83  1  0  0  0  0
 10 11  1  0  0  0  0
 10 84  1  0  0  0  0
 10 85  1  0  0  0  0
 11 12  1  0  0  0  0
 12 13  1  0  0  0  0
 12 86  1  0  0  0  0
 12 87  1  0  0  0  0
 13 14  1  0  0  0  0
 13 88  1  0  0  0  0
 13 89  1  0  0  0  0
 14 15  1  0  0  0  0
 15 16  1  0  0  0  0
 15 90  1  0  0  0  0
 15 91  1  0  0  0  0
 16 17  1  0  0  0  0
 16 92  1  0  0  0  0
 16 93  1  0  0  0  0
 17 18  1  0  0  0  0
 18 19  2  0  0  0  0
 18 20  1  0  0  0  0
 20 21  1  0  0  0  0
 20 67  2  0  0  0  0
 21 22  2  0  0  0  0
 21 94  1  0  0  0  0
 22 23  1  0  0  0  0
 22 95  1  0  0  0  0
 23 24  1  0  0  0  0
 23 66  2  0  0  0  0
 24 25  1  0  0  0  0
 24 60  2  0  0  0  0
 25 26  2  0  0  0  0
 25 65  1  0  0  0  0
 26 27  1  0  0  0  0
 27 28  2  0  0  0  0
 27 64  1  0  0  0  0
 28 29  1  0  0  0  0
 28 35  1  0  0  0  0
 29 30  1  0  0  0  0
 29 34  2  0  0  0  0
 30 31  2  0  0  0  0
 30 96  1  0  0  0  0
 31 32  1  0  0  0  0
 31 97  1  0  0  0  0
 32 33  2  0  0  0  0
 32 98  1  0  0  0  0
 33 34  1  0  0  0  0
 33 99  1  0  0  0  0
 34100  1  0  0  0  0
 35 36  2  0  0  0  0
 35 39  1  0  0  0  0
 36 37  1  0  0  0  0
 36101  1  0  0  0  0
 37 38  2  0  0  0  0
 37102  1  0  0  0  0
 38 39  1  0  0  0  0
 38 40  1  0  0  0  0
 39103  1  0  0  0  0
 40 41  1  0  0  0  0
 40 47  2  0  0  0  0
 41 42  1  0  0  0  0
 41 46  2  0  0  0  0
 42 43  2  0  0  0  0
 42104  1  0  0  0  0
 43 44  1  0  0  0  0
 43105  1  0  0  0  0
 44 45  2  0  0  0  0
 44106  1  0  0  0  0
 45 46  1  0  0  0  0
 45107  1  0  0  0  0
 46108  1  0  0  0  0
 47 48  1  0  0  0  0
 47 63  1  0  0  0  0
 48 49  2  0  0  0  0
 49 50  1  0  0  0  0
 49 62  1  0  0  0  0
 50 51  1  0  0  0  0
 50 57  2  0  0  0  0
 51 52  1  0  0  0  0
 51 56  2  0  0  0  0
 52 53  2  0  0  0  0
 52109  1  0  0  0  0
 53 54  1  0  0  0  0
 53110  1  0  0  0  0
 54 55  2  0  0  0  0
 54111  1  0  0  0  0
 55 56  1  0  0  0  0
 55112  1  0  0  0  0
 56113  1  0  0  0  0
 57 58  1  0  0  0  0
 57 61  1  0  0  0  0
 58 59  2  0  0  0  0
 58114  1  0  0  0  0
 59 60  1  0  0  0  0
 59115  1  0  0  0  0
 60 61  1  0  0  0  0
 61116  1  0  0  0  0
 62 63  2  0  0  0  0
 62117  1  0  0  0  0
 63118  1  0  0  0  0
 64 65  2  0  0  0  0
 64119  1  0  0  0  0
 65120  1  0  0  0  0
 66 67  1  0  0  0  0
 66121  1  0  0  0  0
 67122  1  0  0  0  0
 68 70  1  0  0  0  0
 68 69  1  0  0  0  0
 68  4  1  0  0  0  0
 68123  1  1  0  0  0
 69124  1  0  0  0  0
 69125  1  0  0  0  0
 69126  1  0  0  0  0
 70 71  2  0  0  0  0
 70 72  1  0  0  0  0
 72 73  1  0  0  0  0
 72127  1  0  0  0  0
 73 74  1  0  0  0  0
 73128  1  0  0  0  0
 73129  1  0  0  0  0
 74 75  1  0  0  0  0
 74130  1  0  0  0  0
 74131  1  0  0  0  0
 75132  1  0  0  0  0
 75133  1  0  0  0  0
 75134  1  0  0  0  0
M  CHG  1   4   1
M  END
$$$$
