2_6_4481
 OpenBabel04152301373D

140150  0  0  1  0  0  0  0  0999 V2000
   -0.3535    1.7588    1.7191 C   0  0  0  0  0  0  0  0  0  0  0  0
   -0.0514    1.8498    0.2213 C   0  0  1  0  0  0  0  0  0  0  0  0
   -0.8995    0.3661   -0.5075 S   0  0  0  0  0  0  0  0  0  0  0  0
   -0.2334    0.4803   -2.1824 C   0  0  0  0  0  0  0  0  0  0  0  0
   -0.5733    1.8187   -2.8086 C   0  0  0  0  0  0  0  0  0  0  0  0
   -0.0383    3.0205   -2.0380 C   0  0  0  0  0  0  0  0  0  0  0  0
   -0.4494    3.1631   -0.5302 C   0  0  1  0  0  0  0  0  0  0  0  0
   -1.9443    3.3636   -0.4881 N   0  0  0  0  0  0  0  0  0  0  0  0
   -2.4588    4.4425    0.2281 C   0  0  0  0  0  0  0  0  0  0  0  0
   -2.3145    5.7500   -0.2538 C   0  0  0  0  0  0  0  0  0  0  0  0
   -2.4933    6.8513    0.5854 C   0  0  0  0  0  0  0  0  0  0  0  0
   -2.8630    6.6478    1.9094 C   0  0  0  0  0  0  0  0  0  0  0  0
   -2.9621    7.9848    2.9856 Cl  0  0  0  0  0  0  0  0  0  0  0  0
   -3.1126    5.3607    2.3780 C   0  0  0  0  0  0  0  0  0  0  0  0
   -2.9212    4.2637    1.5336 C   0  0  0  0  0  0  0  0  0  0  0  0
    0.3302    4.4522   -0.0924 C   0  0  0  0  0  0  0  0  0  0  0  0
    0.4972    5.4039   -0.8594 O   0  0  0  0  0  0  0  0  0  0  0  0
    0.7402    4.4852    1.2046 O   0  0  0  0  0  0  0  0  0  0  0  0
    1.1312    5.7808    1.6840 C   0  0  0  0  0  0  0  0  0  0  0  0
    2.6192    6.0271    1.9965 C   0  0  0  0  0  0  0  0  0  0  0  0
    3.7158    5.5608    1.2250 O   0  0  0  0  0  0  0  0  0  0  0  0
    3.5143    4.9555   -0.0298 C   0  0  0  0  0  0  0  0  0  0  0  0
    3.4932    3.4244    0.0019 C   0  0  0  0  0  0  0  0  0  0  0  0
    2.8768    2.7979    1.1177 O   0  0  0  0  0  0  0  0  0  0  0  0
    3.5545    2.8075    2.3751 C   0  0  0  0  0  0  0  0  0  0  0  0
    5.0664    3.0782    2.4097 C   0  0  0  0  0  0  0  0  0  0  0  0
    5.9148    2.3200    1.5493 O   0  0  0  0  0  0  0  0  0  0  0  0
    5.5434    0.9872    1.2190 C   0  0  0  0  0  0  0  0  0  0  0  0
    5.9699   -0.0627    2.2359 C   0  0  0  0  0  0  0  0  0  0  0  0
    5.2469    0.0813    3.4655 O   0  0  0  0  0  0  0  0  0  0  0  0
    5.9210    0.7117    4.4500 C   0  0  0  0  0  0  0  0  0  0  0  0
    7.0705    1.1330    4.4221 O   0  0  0  0  0  0  0  0  0  0  0  0
    5.0130    0.9546    5.5789 C   0  0  0  0  0  0  0  0  0  0  0  0
    5.0227    2.2204    6.1790 C   0  0  0  0  0  0  0  0  0  0  0  0
    4.3077    2.4343    7.3509 C   0  0  0  0  0  0  0  0  0  0  0  0
    3.6069    1.3715    7.9328 C   0  0  0  0  0  0  0  0  0  0  0  0
    3.1396    1.4881    9.3284 C   0  0  0  0  0  0  0  0  0  0  0  0
    3.9830    0.8807   10.4143 C   0  0  0  0  0  0  0  0  0  0  0  0
    3.7504    0.8007   11.6980 N   0  0  0  0  0  0  0  0  0  0  0  0
    4.8421    0.1285   12.2342 C   0  0  0  0  0  0  0  0  0  0  0  0
    5.0906   -0.1776   13.5290 C   0  0  0  0  0  0  0  0  0  0  0  0
    6.3540   -0.9353   13.8322 C   0  0  0  0  0  0  0  0  0  0  0  0
    7.6188   -0.3407   13.6938 C   0  0  0  0  0  0  0  0  0  0  0  0
    8.7785   -1.0720   13.9628 C   0  0  0  0  0  0  0  0  0  0  0  0
    8.6854   -2.3889   14.4112 C   0  0  0  0  0  0  0  0  0  0  0  0
    7.4353   -2.9810   14.5809 C   0  0  0  0  0  0  0  0  0  0  0  0
    6.2762   -2.2629   14.2815 C   0  0  0  0  0  0  0  0  0  0  0  0
    4.1990    0.1444   14.6102 C   0  0  0  0  0  0  0  0  0  0  0  0
    4.3521   -0.1113   15.9607 C   0  0  0  0  0  0  0  0  0  0  0  0
    3.1947    0.3190   16.6172 C   0  0  0  0  0  0  0  0  0  0  0  0
    2.3541    0.9096   15.6860 C   0  0  0  0  0  0  0  0  0  0  0  0
    2.9795    0.7874   14.4577 N   0  0  0  0  0  0  0  0  0  0  0  0
    1.0742    1.5348   15.9033 C   0  0  0  0  0  0  0  0  0  0  0  0
    0.5611    1.6003   17.3156 C   0  0  0  0  0  0  0  0  0  0  0  0
   -0.5453    0.8436   17.7309 C   0  0  0  0  0  0  0  0  0  0  0  0
   -0.9967    0.9203   19.0501 C   0  0  0  0  0  0  0  0  0  0  0  0
   -0.3226    1.7179   19.9747 C   0  0  0  0  0  0  0  0  0  0  0  0
    0.7958    2.4502   19.5813 C   0  0  0  0  0  0  0  0  0  0  0  0
    1.2274    2.4031   18.2557 C   0  0  0  0  0  0  0  0  0  0  0  0
    0.3103    2.1060   14.9391 C   0  0  0  0  0  0  0  0  0  0  0  0
    0.5600    2.2262   13.5775 N   0  0  0  0  0  0  0  0  0  0  0  0
   -0.4812    2.8463   13.0747 C   0  0  0  0  0  0  0  0  0  0  0  0
   -0.7366    3.2793   11.6556 C   0  0  0  0  0  0  0  0  0  0  0  0
   -1.9875    3.9914   11.2866 C   0  0  0  0  0  0  0  0  0  0  0  0
   -2.2310    5.2944   11.7455 C   0  0  0  0  0  0  0  0  0  0  0  0
   -3.4256    5.9450   11.4278 C   0  0  0  0  0  0  0  0  0  0  0  0
   -4.3715    5.3152   10.6203 C   0  0  0  0  0  0  0  0  0  0  0  0
   -4.1310    4.0306   10.1375 C   0  0  0  0  0  0  0  0  0  0  0  0
   -2.9521    3.3657   10.4803 C   0  0  0  0  0  0  0  0  0  0  0  0
    0.1815    2.9965   10.7131 C   0  0  0  0  0  0  0  0  0  0  0  0
    0.0858    3.3346    9.2951 C   0  0  0  0  0  0  0  0  0  0  0  0
    1.1397    2.8096    8.6470 C   0  0  0  0  0  0  0  0  0  0  0  0
    2.0006    2.1361    9.6176 C   0  0  0  0  0  0  0  0  0  0  0  0
    1.3729    2.3250   10.8199 N   0  0  0  0  0  0  0  0  0  0  0  0
   -1.5270    3.1604   14.0574 C   0  0  0  0  0  0  0  0  0  0  0  0
   -0.9742    2.7310   15.1831 C   0  0  0  0  0  0  0  0  0  0  0  0
    5.7205   -0.2064   11.1362 C   0  0  0  0  0  0  0  0  0  0  0  0
    5.2596    0.2771    9.9932 C   0  0  0  0  0  0  0  0  0  0  0  0
    3.5259    0.1301    7.2786 C   0  0  0  0  0  0  0  0  0  0  0  0
    4.2342   -0.0817    6.0989 C   0  0  0  0  0  0  0  0  0  0  0  0
   -0.0273    0.8103    2.0918 H   0  0  0  0  0  0  0  0  0  0  0  0
   -1.4068    1.8611    1.8774 H   0  0  0  0  0  0  0  0  0  0  0  0
    0.1624    2.5414    2.2352 H   0  0  0  0  0  0  0  0  0  0  0  0
    1.0112    1.8716    0.0974 H   0  0  0  0  0  0  0  0  0  0  0  0
   -0.6515   -0.3026   -2.7800 H   0  0  0  0  0  0  0  0  0  0  0  0
    0.8313    0.3853   -2.1346 H   0  0  0  0  0  0  0  0  0  0  0  0
   -1.6385    1.9026   -2.8646 H   0  0  0  0  0  0  0  0  0  0  0  0
   -0.1061    1.8365   -3.7710 H   0  0  0  0  0  0  0  0  0  0  0  0
   -0.3744    3.9006   -2.5453 H   0  0  0  0  0  0  0  0  0  0  0  0
    1.0219    2.8774   -2.0165 H   0  0  0  0  0  0  0  0  0  0  0  0
   -2.5461    2.7426   -0.9587 H   0  0  0  0  0  0  0  0  0  0  0  0
   -2.0721    5.9016   -1.2454 H   0  0  0  0  0  0  0  0  0  0  0  0
   -2.3521    7.8082    0.2256 H   0  0  0  0  0  0  0  0  0  0  0  0
   -3.4382    5.2171    3.3467 H   0  0  0  0  0  0  0  0  0  0  0  0
   -3.1236    3.3122    1.8782 H   0  0  0  0  0  0  0  0  0  0  0  0
    0.5841    5.9631    2.5853 H   0  0  0  0  0  0  0  0  0  0  0  0
    0.9215    6.4384    0.8664 H   0  0  0  0  0  0  0  0  0  0  0  0
    2.7720    5.6243    2.9759 H   0  0  0  0  0  0  0  0  0  0  0  0
    2.6807    7.0755    1.7916 H   0  0  0  0  0  0  0  0  0  0  0  0
    4.3041    5.2658   -0.6816 H   0  0  0  0  0  0  0  0  0  0  0  0
    2.5479    5.2671   -0.3673 H   0  0  0  0  0  0  0  0  0  0  0  0
    4.5089    3.0895   -0.0324 H   0  0  0  0  0  0  0  0  0  0  0  0
    2.8888    3.1437   -0.8353 H   0  0  0  0  0  0  0  0  0  0  0  0
    3.3985    1.8477    2.8216 H   0  0  0  0  0  0  0  0  0  0  0  0
    3.1336    3.6491    2.8846 H   0  0  0  0  0  0  0  0  0  0  0  0
    5.3956    2.9024    3.4125 H   0  0  0  0  0  0  0  0  0  0  0  0
    5.1604    4.0819    2.0511 H   0  0  0  0  0  0  0  0  0  0  0  0
    5.9893    0.7404    0.2782 H   0  0  0  0  0  0  0  0  0  0  0  0
    4.4738    0.9685    1.1958 H   0  0  0  0  0  0  0  0  0  0  0  0
    7.0162    0.0461    2.4317 H   0  0  0  0  0  0  0  0  0  0  0  0
    5.7599   -1.0307    1.8312 H   0  0  0  0  0  0  0  0  0  0  0  0
    5.5593    2.9916    5.7519 H   0  0  0  0  0  0  0  0  0  0  0  0
    4.2934    3.3688    7.7886 H   0  0  0  0  0  0  0  0  0  0  0  0
    7.6921    0.6432   13.3913 H   0  0  0  0  0  0  0  0  0  0  0  0
    9.7048   -0.6370   13.8295 H   0  0  0  0  0  0  0  0  0  0  0  0
    9.5425   -2.9254   14.6175 H   0  0  0  0  0  0  0  0  0  0  0  0
    7.3664   -3.9505   14.9279 H   0  0  0  0  0  0  0  0  0  0  0  0
    5.3537   -2.7122   14.3915 H   0  0  0  0  0  0  0  0  0  0  0  0
    5.1764   -0.5440   16.4061 H   0  0  0  0  0  0  0  0  0  0  0  0
    2.9992    0.2145   17.6251 H   0  0  0  0  0  0  0  0  0  0  0  0
    2.6132    1.1091   13.6024 H   0  0  0  0  0  0  0  0  0  0  0  0
   -1.0277    0.2274   17.0581 H   0  0  0  0  0  0  0  0  0  0  0  0
   -1.8303    0.3861   19.3414 H   0  0  0  0  0  0  0  0  0  0  0  0
   -0.6525    1.7658   20.9514 H   0  0  0  0  0  0  0  0  0  0  0  0
    1.3042    3.0267   20.2699 H   0  0  0  0  0  0  0  0  0  0  0  0
    2.0434    2.9631   17.9633 H   0  0  0  0  0  0  0  0  0  0  0  0
   -1.5228    5.7756   12.3217 H   0  0  0  0  0  0  0  0  0  0  0  0
   -3.6082    6.8934   11.7914 H   0  0  0  0  0  0  0  0  0  0  0  0
   -5.2500    5.8006   10.3801 H   0  0  0  0  0  0  0  0  0  0  0  0
   -4.8241    3.5706    9.5267 H   0  0  0  0  0  0  0  0  0  0  0  0
   -2.7881    2.4060   10.1381 H   0  0  0  0  0  0  0  0  0  0  0  0
   -0.6696    3.8876    8.8609 H   0  0  0  0  0  0  0  0  0  0  0  0
    1.3127    2.8717    7.6315 H   0  0  0  0  0  0  0  0  0  0  0  0
    1.7407    2.0098   11.6770 H   0  0  0  0  0  0  0  0  0  0  0  0
   -2.4492    3.5997   13.9101 H   0  0  0  0  0  0  0  0  0  0  0  0
   -1.4045    2.8294   16.1160 H   0  0  0  0  0  0  0  0  0  0  0  0
    6.5922   -0.7507   11.2308 H   0  0  0  0  0  0  0  0  0  0  0  0
    5.6836    0.2408    9.0530 H   0  0  0  0  0  0  0  0  0  0  0  0
    2.9417   -0.6239    7.6725 H   0  0  0  0  0  0  0  0  0  0  0  0
    4.1845   -0.9920    5.6152 H   0  0  0  0  0  0  0  0  0  0  0  0
  1 81  1  0  0  0  0
  1 82  1  0  0  0  0
  1 83  1  0  0  0  0
  2  3  1  0  0  0  0
  2  7  1  0  0  0  0
  2  1  1  0  0  0  0
  2 84  1  6  0  0  0
  3  4  1  0  0  0  0
  4  5  1  0  0  0  0
  4 85  1  0  0  0  0
  4 86  1  0  0  0  0
  5  6  1  0  0  0  0
  5 87  1  0  0  0  0
  5 88  1  0  0  0  0
  6  7  1  0  0  0  0
  6 89  1  0  0  0  0
  6 90  1  0  0  0  0
  7  8  1  0  0  0  0
  7 16  1  1  0  0  0
  8  9  1  0  0  0  0
  8 91  1  0  0  0  0
  9 10  1  0  0  0  0
  9 15  2  0  0  0  0
 10 11  2  0  0  0  0
 10 92  1  0  0  0  0
 11 12  1  0  0  0  0
 11 93  1  0  0  0  0
 12 13  1  0  0  0  0
 12 14  2  0  0  0  0
 14 15  1  0  0  0  0
 14 94  1  0  0  0  0
 15 95  1  0  0  0  0
 16 17  2  0  0  0  0
 16 18  1  0  0  0  0
 18 19  1  0  0  0  0
 19 20  1  0  0  0  0
 19 96  1  0  0  0  0
 19 97  1  0  0  0  0
 20 21  1  0  0  0  0
 20 98  1  0  0  0  0
 20 99  1  0  0  0  0
 21 22  1  0  0  0  0
 22 23  1  0  0  0  0
 22100  1  0  0  0  0
 22101  1  0  0  0  0
 23 24  1  0  0  0  0
 23102  1  0  0  0  0
 23103  1  0  0  0  0
 24 25  1  0  0  0  0
 25 26  1  0  0  0  0
 25104  1  0  0  0  0
 25105  1  0  0  0  0
 26 27  1  0  0  0  0
 26106  1  0  0  0  0
 26107  1  0  0  0  0
 27 28  1  0  0  0  0
 28 29  1  0  0  0  0
 28108  1  0  0  0  0
 28109  1  0  0  0  0
 29 30  1  0  0  0  0
 29110  1  0  0  0  0
 29111  1  0  0  0  0
 30 31  1  0  0  0  0
 31 32  2  0  0  0  0
 31 33  1  0  0  0  0
 33 34  1  0  0  0  0
 33 80  2  0  0  0  0
 34 35  2  0  0  0  0
 34112  1  0  0  0  0
 35 36  1  0  0  0  0
 35113  1  0  0  0  0
 36 37  1  0  0  0  0
 36 79  2  0  0  0  0
 37 38  1  0  0  0  0
 37 73  2  0  0  0  0
 38 39  2  0  0  0  0
 38 78  1  0  0  0  0
 39 40  1  0  0  0  0
 40 41  2  0  0  0  0
 40 77  1  0  0  0  0
 41 42  1  0  0  0  0
 41 48  1  0  0  0  0
 42 43  1  0  0  0  0
 42 47  2  0  0  0  0
 43 44  2  0  0  0  0
 43114  1  0  0  0  0
 44 45  1  0  0  0  0
 44115  1  0  0  0  0
 45 46  2  0  0  0  0
 45116  1  0  0  0  0
 46 47  1  0  0  0  0
 46117  1  0  0  0  0
 47118  1  0  0  0  0
 48 49  2  0  0  0  0
 48 52  1  0  0  0  0
 49 50  1  0  0  0  0
 49119  1  0  0  0  0
 50 51  2  0  0  0  0
 50120  1  0  0  0  0
 51 52  1  0  0  0  0
 51 53  1  0  0  0  0
 52121  1  0  0  0  0
 53 54  1  0  0  0  0
 53 60  2  0  0  0  0
 54 55  1  0  0  0  0
 54 59  2  0  0  0  0
 55 56  2  0  0  0  0
 55122  1  0  0  0  0
 56 57  1  0  0  0  0
 56123  1  0  0  0  0
 57 58  2  0  0  0  0
 57124  1  0  0  0  0
 58 59  1  0  0  0  0
 58125  1  0  0  0  0
 59126  1  0  0  0  0
 60 61  1  0  0  0  0
 60 76  1  0  0  0  0
 61 62  2  0  0  0  0
 62 63  1  0  0  0  0
 62 75  1  0  0  0  0
 63 64  1  0  0  0  0
 63 70  2  0  0  0  0
 64 65  1  0  0  0  0
 64 69  2  0  0  0  0
 65 66  2  0  0  0  0
 65127  1  0  0  0  0
 66 67  1  0  0  0  0
 66128  1  0  0  0  0
 67 68  2  0  0  0  0
 67129  1  0  0  0  0
 68 69  1  0  0  0  0
 68130  1  0  0  0  0
 69131  1  0  0  0  0
 70 71  1  0  0  0  0
 70 74  1  0  0  0  0
 71 72  2  0  0  0  0
 71132  1  0  0  0  0
 72 73  1  0  0  0  0
 72133  1  0  0  0  0
 73 74  1  0  0  0  0
 74134  1  0  0  0  0
 75 76  2  0  0  0  0
 75135  1  0  0  0  0
 76136  1  0  0  0  0
 77 78  2  0  0  0  0
 77137  1  0  0  0  0
 78138  1  0  0  0  0
 79 80  1  0  0  0  0
 79139  1  0  0  0  0
 80140  1  0  0  0  0
M  END
$$$$
