2_6_7030
 OpenBabel04152301363D

136146  0  0  0  0  0  0  0  0999 V2000
    1.3094    0.9874    0.4086 O   0  0  0  0  0  0  0  0  0  0  0  0
    2.5325    0.8866    0.3523 C   0  0  0  0  0  0  0  0  0  0  0  0
    3.2231    1.2158   -0.9105 C   0  0  0  0  0  0  0  0  0  0  0  0
    4.4392    1.7292   -1.1365 C   0  0  0  0  0  0  0  0  0  0  0  0
    4.9242    1.9129   -2.5133 C   0  0  0  0  0  0  0  0  0  0  0  0
    5.8352    0.9303   -2.9630 C   0  0  0  0  0  0  0  0  0  0  0  0
    6.4204    0.9952   -4.2275 C   0  0  0  0  0  0  0  0  0  0  0  0
    6.0961    2.0426   -5.0754 C   0  0  0  0  0  0  0  0  0  0  0  0
    5.1767    3.0079   -4.6595 C   0  0  0  0  0  0  0  0  0  0  0  0
    4.5739    2.9600   -3.3874 C   0  0  0  0  0  0  0  0  0  0  0  0
    3.7216    4.0344   -3.1866 O   0  0  0  0  0  0  0  0  0  0  0  0
    2.8555    4.0511   -2.1275 C   0  0  0  0  0  0  0  0  0  0  0  0
    1.5358    3.6288   -2.3107 C   0  0  0  0  0  0  0  0  0  0  0  0
    0.6684    3.5894   -1.2170 C   0  0  0  0  0  0  0  0  0  0  0  0
    1.1217    3.9787    0.0473 C   0  0  0  0  0  0  0  0  0  0  0  0
    2.4300    4.4362    0.2072 C   0  0  0  0  0  0  0  0  0  0  0  0
    3.0271    4.7913    1.7816 Cl  0  0  0  0  0  0  0  0  0  0  0  0
    3.2894    4.5180   -0.8857 C   0  0  0  0  0  0  0  0  0  0  0  0
    3.1811    0.2825    1.3617 O   0  0  0  0  0  0  0  0  0  0  0  0
    4.5515   -0.0912    1.3886 C   0  0  0  0  0  0  0  0  0  0  0  0
    5.0812   -1.0125    0.2946 C   0  0  0  0  0  0  0  0  0  0  0  0
    4.3396   -1.4532   -0.8243 O   0  0  0  0  0  0  0  0  0  0  0  0
    2.9932   -1.9073   -0.9201 C   0  0  0  0  0  0  0  0  0  0  0  0
    2.3188   -2.8479    0.0821 C   0  0  0  0  0  0  0  0  0  0  0  0
    2.8682   -4.1404    0.2813 O   0  0  0  0  0  0  0  0  0  0  0  0
    4.2551   -4.1358    0.5544 C   0  0  0  0  0  0  0  0  0  0  0  0
    5.1141   -4.2932   -0.7165 C   0  0  0  0  0  0  0  0  0  0  0  0
    4.3498   -4.1895   -1.9103 O   0  0  0  0  0  0  0  0  0  0  0  0
    3.9578   -5.3992   -2.5449 C   0  0  0  0  0  0  0  0  0  0  0  0
    3.0889   -6.4101   -1.7723 C   0  0  0  0  0  0  0  0  0  0  0  0
    3.5452   -6.7991   -0.4654 O   0  0  0  0  0  0  0  0  0  0  0  0
    4.7165   -7.4560   -0.3495 C   0  0  0  0  0  0  0  0  0  0  0  0
    5.4199   -7.8689   -1.2554 O   0  0  0  0  0  0  0  0  0  0  0  0
    5.1433   -7.3362    1.0708 C   0  0  0  0  0  0  0  0  0  0  0  0
    6.4374   -6.8593    1.3339 C   0  0  0  0  0  0  0  0  0  0  0  0
    6.8464   -6.6216    2.6470 C   0  0  0  0  0  0  0  0  0  0  0  0
    5.9842   -6.9191    3.7123 C   0  0  0  0  0  0  0  0  0  0  0  0
    6.5804   -7.1350    5.0538 C   0  0  0  0  0  0  0  0  0  0  0  0
    7.1054   -8.5194    5.3382 C   0  0  0  0  0  0  0  0  0  0  0  0
    7.7233   -8.9779    6.3949 N   0  0  0  0  0  0  0  0  0  0  0  0
    8.0096  -10.3071    6.1081 C   0  0  0  0  0  0  0  0  0  0  0  0
    8.6793  -11.2128    6.8558 C   0  0  0  0  0  0  0  0  0  0  0  0
    8.8676  -12.5780    6.2614 C   0  0  0  0  0  0  0  0  0  0  0  0
    9.7612  -12.7865    5.1978 C   0  0  0  0  0  0  0  0  0  0  0  0
    9.9002  -14.0546    4.6312 C   0  0  0  0  0  0  0  0  0  0  0  0
    9.1749  -15.1296    5.1433 C   0  0  0  0  0  0  0  0  0  0  0  0
    8.3025  -14.9382    6.2142 C   0  0  0  0  0  0  0  0  0  0  0  0
    8.1408  -13.6663    6.7650 C   0  0  0  0  0  0  0  0  0  0  0  0
    9.1811  -10.9522    8.1735 C   0  0  0  0  0  0  0  0  0  0  0  0
    9.8416  -11.8126    9.0309 C   0  0  0  0  0  0  0  0  0  0  0  0
   10.0828  -11.1298   10.2272 C   0  0  0  0  0  0  0  0  0  0  0  0
    9.6252   -9.8287   10.0890 C   0  0  0  0  0  0  0  0  0  0  0  0
    9.0637   -9.7374    8.8287 N   0  0  0  0  0  0  0  0  0  0  0  0
    9.6910   -8.7478   11.0367 C   0  0  0  0  0  0  0  0  0  0  0  0
   10.3732   -9.0123   12.3499 C   0  0  0  0  0  0  0  0  0  0  0  0
    9.6475   -9.0968   13.5478 C   0  0  0  0  0  0  0  0  0  0  0  0
   10.3049   -9.3484   14.7539 C   0  0  0  0  0  0  0  0  0  0  0  0
   11.6840   -9.5565   14.7684 C   0  0  0  0  0  0  0  0  0  0  0  0
   12.4107   -9.5057   13.5803 C   0  0  0  0  0  0  0  0  0  0  0  0
   11.7611   -9.2237   12.3783 C   0  0  0  0  0  0  0  0  0  0  0  0
    9.2121   -7.4972   10.8227 C   0  0  0  0  0  0  0  0  0  0  0  0
    8.5790   -6.9781    9.6982 N   0  0  0  0  0  0  0  0  0  0  0  0
    8.2933   -5.7312    9.9895 C   0  0  0  0  0  0  0  0  0  0  0  0
    7.6426   -4.6741    9.1298 C   0  0  0  0  0  0  0  0  0  0  0  0
    7.4269   -3.3032    9.6701 C   0  0  0  0  0  0  0  0  0  0  0  0
    8.5111   -2.4578    9.9551 C   0  0  0  0  0  0  0  0  0  0  0  0
    8.3016   -1.2107   10.5517 C   0  0  0  0  0  0  0  0  0  0  0  0
    7.0068   -0.7803   10.8363 C   0  0  0  0  0  0  0  0  0  0  0  0
    5.9199   -1.5968   10.5310 C   0  0  0  0  0  0  0  0  0  0  0  0
    6.1286   -2.8558    9.9627 C   0  0  0  0  0  0  0  0  0  0  0  0
    7.2378   -4.9925    7.8835 C   0  0  0  0  0  0  0  0  0  0  0  0
    6.6156   -4.0837    6.9207 C   0  0  0  0  0  0  0  0  0  0  0  0
    6.3056   -4.7655    5.8011 C   0  0  0  0  0  0  0  0  0  0  0  0
    6.7254   -6.1554    5.9636 C   0  0  0  0  0  0  0  0  0  0  0  0
    7.2837   -6.1940    7.2188 N   0  0  0  0  0  0  0  0  0  0  0  0
    8.6891   -5.3291   11.3484 C   0  0  0  0  0  0  0  0  0  0  0  0
    9.2861   -6.4256   11.7934 C   0  0  0  0  0  0  0  0  0  0  0  0
    7.4648  -10.5963    4.8029 C   0  0  0  0  0  0  0  0  0  0  0  0
    6.9146   -9.5192    4.2710 C   0  0  0  0  0  0  0  0  0  0  0  0
    4.6681   -7.3374    3.4486 C   0  0  0  0  0  0  0  0  0  0  0  0
    4.2469   -7.5417    2.1287 C   0  0  0  0  0  0  0  0  0  0  0  0
    2.6764    1.0167   -1.7629 H   0  0  0  0  0  0  0  0  0  0  0  0
    5.0392    1.9973   -0.3408 H   0  0  0  0  0  0  0  0  0  0  0  0
    6.0738    0.1437   -2.3390 H   0  0  0  0  0  0  0  0  0  0  0  0
    7.0892    0.2695   -4.5292 H   0  0  0  0  0  0  0  0  0  0  0  0
    6.5316    2.1087   -6.0087 H   0  0  0  0  0  0  0  0  0  0  0  0
    4.9322    3.7776   -5.3019 H   0  0  0  0  0  0  0  0  0  0  0  0
    1.2049    3.3482   -3.2471 H   0  0  0  0  0  0  0  0  0  0  0  0
   -0.3061    3.2733   -1.3417 H   0  0  0  0  0  0  0  0  0  0  0  0
    0.4892    3.9276    0.8612 H   0  0  0  0  0  0  0  0  0  0  0  0
    4.2345    4.9185   -0.7788 H   0  0  0  0  0  0  0  0  0  0  0  0
    4.7262   -0.5803    2.3241 H   0  0  0  0  0  0  0  0  0  0  0  0
    5.0747    0.8285    1.2295 H   0  0  0  0  0  0  0  0  0  0  0  0
    5.3933   -1.9033    0.7985 H   0  0  0  0  0  0  0  0  0  0  0  0
    5.7818   -0.3603   -0.1837 H   0  0  0  0  0  0  0  0  0  0  0  0
    2.9230   -2.3994   -1.8676 H   0  0  0  0  0  0  0  0  0  0  0  0
    2.4645   -0.9981   -0.7231 H   0  0  0  0  0  0  0  0  0  0  0  0
    1.3083   -2.9822   -0.2432 H   0  0  0  0  0  0  0  0  0  0  0  0
    2.4531   -2.3610    1.0254 H   0  0  0  0  0  0  0  0  0  0  0  0
    4.4756   -4.9452    1.2186 H   0  0  0  0  0  0  0  0  0  0  0  0
    4.4948   -3.1885    0.9904 H   0  0  0  0  0  0  0  0  0  0  0  0
    5.5860   -5.2533   -0.6942 H   0  0  0  0  0  0  0  0  0  0  0  0
    5.8322   -3.5000   -0.7220 H   0  0  0  0  0  0  0  0  0  0  0  0
    4.8555   -5.9096   -2.8251 H   0  0  0  0  0  0  0  0  0  0  0  0
    3.3199   -5.0727   -3.3395 H   0  0  0  0  0  0  0  0  0  0  0  0
    3.0196   -7.2969   -2.3671 H   0  0  0  0  0  0  0  0  0  0  0  0
    2.1603   -5.9061   -1.6035 H   0  0  0  0  0  0  0  0  0  0  0  0
    7.0889   -6.6838    0.5531 H   0  0  0  0  0  0  0  0  0  0  0  0
    7.7818   -6.2276    2.8337 H   0  0  0  0  0  0  0  0  0  0  0  0
   10.3180  -11.9978    4.8333 H   0  0  0  0  0  0  0  0  0  0  0  0
   10.5395  -14.1964    3.8336 H   0  0  0  0  0  0  0  0  0  0  0  0
    9.2839  -16.0685    4.7291 H   0  0  0  0  0  0  0  0  0  0  0  0
    7.7761  -15.7378    6.5997 H   0  0  0  0  0  0  0  0  0  0  0  0
    7.4826  -13.5258    7.5474 H   0  0  0  0  0  0  0  0  0  0  0  0
   10.1096  -12.7876    8.8243 H   0  0  0  0  0  0  0  0  0  0  0  0
   10.5263  -11.5272   11.0700 H   0  0  0  0  0  0  0  0  0  0  0  0
    8.6435   -8.9301    8.4533 H   0  0  0  0  0  0  0  0  0  0  0  0
    8.6231   -8.9724   13.5375 H   0  0  0  0  0  0  0  0  0  0  0  0
    9.7696   -9.3804   15.6356 H   0  0  0  0  0  0  0  0  0  0  0  0
   12.1669   -9.7483   15.6601 H   0  0  0  0  0  0  0  0  0  0  0  0
   13.4284   -9.6765   13.5897 H   0  0  0  0  0  0  0  0  0  0  0  0
   12.3050   -9.1700   11.5029 H   0  0  0  0  0  0  0  0  0  0  0  0
    9.4703   -2.7593    9.7224 H   0  0  0  0  0  0  0  0  0  0  0  0
    9.1070   -0.6079   10.7817 H   0  0  0  0  0  0  0  0  0  0  0  0
    6.8533    0.1422   11.2727 H   0  0  0  0  0  0  0  0  0  0  0  0
    4.9600   -1.2713   10.7248 H   0  0  0  0  0  0  0  0  0  0  0  0
    5.3203   -3.4632    9.7558 H   0  0  0  0  0  0  0  0  0  0  0  0
    6.4415   -3.0783    7.0750 H   0  0  0  0  0  0  0  0  0  0  0  0
    5.8467   -4.3707    4.9653 H   0  0  0  0  0  0  0  0  0  0  0  0
    7.6801   -7.0077    7.6060 H   0  0  0  0  0  0  0  0  0  0  0  0
    8.5406   -4.4283   11.8295 H   0  0  0  0  0  0  0  0  0  0  0  0
    9.7451   -6.5053   12.7143 H   0  0  0  0  0  0  0  0  0  0  0  0
    7.5003  -11.5210    4.3462 H   0  0  0  0  0  0  0  0  0  0  0  0
    6.4672   -9.4067    3.3478 H   0  0  0  0  0  0  0  0  0  0  0  0
    4.0113   -7.4942    4.2290 H   0  0  0  0  0  0  0  0  0  0  0  0
    3.2789   -7.8428    1.9354 H   0  0  0  0  0  0  0  0  0  0  0  0
  1  2  2  0  0  0  0
  2  3  1  0  0  0  0
  2 19  1  0  0  0  0
  3  4  2  0  0  0  0
  3 82  1  0  0  0  0
  4  5  1  0  0  0  0
  4 83  1  0  0  0  0
  5  6  1  0  0  0  0
  5 10  2  0  0  0  0
  6  7  2  0  0  0  0
  6 84  1  0  0  0  0
  7  8  1  0  0  0  0
  7 85  1  0  0  0  0
  8  9  2  0  0  0  0
  8 86  1  0  0  0  0
  9 10  1  0  0  0  0
  9 87  1  0  0  0  0
 10 11  1  0  0  0  0
 11 12  1  0  0  0  0
 12 13  1  0  0  0  0
 12 18  2  0  0  0  0
 13 14  2  0  0  0  0
 13 88  1  0  0  0  0
 14 15  1  0  0  0  0
 14 89  1  0  0  0  0
 15 16  2  0  0  0  0
 15 90  1  0  0  0  0
 16 17  1  0  0  0  0
 16 18  1  0  0  0  0
 18 91  1  0  0  0  0
 19 20  1  0  0  0  0
 20 21  1  0  0  0  0
 20 92  1  0  0  0  0
 20 93  1  0  0  0  0
 21 22  1  0  0  0  0
 21 94  1  0  0  0  0
 21 95  1  0  0  0  0
 22 23  1  0  0  0  0
 23 24  1  0  0  0  0
 23 96  1  0  0  0  0
 23 97  1  0  0  0  0
 24 25  1  0  0  0  0
 24 98  1  0  0  0  0
 24 99  1  0  0  0  0
 25 26  1  0  0  0  0
 26 27  1  0  0  0  0
 26100  1  0  0  0  0
 26101  1  0  0  0  0
 27 28  1  0  0  0  0
 27102  1  0  0  0  0
 27103  1  0  0  0  0
 28 29  1  0  0  0  0
 29 30  1  0  0  0  0
 29104  1  0  0  0  0
 29105  1  0  0  0  0
 30 31  1  0  0  0  0
 30106  1  0  0  0  0
 30107  1  0  0  0  0
 31 32  1  0  0  0  0
 32 33  2  0  0  0  0
 32 34  1  0  0  0  0
 34 35  1  0  0  0  0
 34 81  2  0  0  0  0
 35 36  2  0  0  0  0
 35108  1  0  0  0  0
 36 37  1  0  0  0  0
 36109  1  0  0  0  0
 37 38  1  0  0  0  0
 37 80  2  0  0  0  0
 38 39  1  0  0  0  0
 38 74  2  0  0  0  0
 39 40  2  0  0  0  0
 39 79  1  0  0  0  0
 40 41  1  0  0  0  0
 41 42  2  0  0  0  0
 41 78  1  0  0  0  0
 42 43  1  0  0  0  0
 42 49  1  0  0  0  0
 43 44  1  0  0  0  0
 43 48  2  0  0  0  0
 44 45  2  0  0  0  0
 44110  1  0  0  0  0
 45 46  1  0  0  0  0
 45111  1  0  0  0  0
 46 47  2  0  0  0  0
 46112  1  0  0  0  0
 47 48  1  0  0  0  0
 47113  1  0  0  0  0
 48114  1  0  0  0  0
 49 50  2  0  0  0  0
 49 53  1  0  0  0  0
 50 51  1  0  0  0  0
 50115  1  0  0  0  0
 51 52  2  0  0  0  0
 51116  1  0  0  0  0
 52 53  1  0  0  0  0
 52 54  1  0  0  0  0
 53117  1  0  0  0  0
 54 55  1  0  0  0  0
 54 61  2  0  0  0  0
 55 56  1  0  0  0  0
 55 60  2  0  0  0  0
 56 57  2  0  0  0  0
 56118  1  0  0  0  0
 57 58  1  0  0  0  0
 57119  1  0  0  0  0
 58 59  2  0  0  0  0
 58120  1  0  0  0  0
 59 60  1  0  0  0  0
 59121  1  0  0  0  0
 60122  1  0  0  0  0
 61 62  1  0  0  0  0
 61 77  1  0  0  0  0
 62 63  2  0  0  0  0
 63 64  1  0  0  0  0
 63 76  1  0  0  0  0
 64 65  1  0  0  0  0
 64 71  2  0  0  0  0
 65 66  1  0  0  0  0
 65 70  2  0  0  0  0
 66 67  2  0  0  0  0
 66123  1  0  0  0  0
 67 68  1  0  0  0  0
 67124  1  0  0  0  0
 68 69  2  0  0  0  0
 68125  1  0  0  0  0
 69 70  1  0  0  0  0
 69126  1  0  0  0  0
 70127  1  0  0  0  0
 71 72  1  0  0  0  0
 71 75  1  0  0  0  0
 72 73  2  0  0  0  0
 72128  1  0  0  0  0
 73 74  1  0  0  0  0
 73129  1  0  0  0  0
 74 75  1  0  0  0  0
 75130  1  0  0  0  0
 76 77  2  0  0  0  0
 76131  1  0  0  0  0
 77132  1  0  0  0  0
 78 79  2  0  0  0  0
 78133  1  0  0  0  0
 79134  1  0  0  0  0
 80 81  1  0  0  0  0
 80135  1  0  0  0  0
 81136  1  0  0  0  0
M  END
$$$$
