3_0_8740
 OpenBabel04132311343D

145154  0  0  1  0  0  0  0  0999 V2000
    1.0612   -1.7889    1.4547 C   0  0  0  0  0  0  0  0  0  0  0  0
    0.1433   -2.3817    0.3902 C   0  0  0  0  0  0  0  0  0  0  0  0
    0.5688   -1.9625   -1.0453 C   0  0  2  0  0  0  0  0  0  0  0  0
   -0.2012   -0.6966   -1.4428 C   0  0  0  0  0  0  0  0  0  0  0  0
    0.4248   -3.1083   -2.1095 C   0  0  1  0  0  0  0  0  0  0  0  0
    1.0453   -2.7419   -3.4097 N   0  0  0  0  0  0  0  0  0  0  0  0
    1.2789   -3.4945   -4.5334 C   0  0  0  0  0  0  0  0  0  0  0  0
    1.2923   -2.9559   -5.6362 O   0  0  0  0  0  0  0  0  0  0  0  0
    1.7754   -4.8773   -4.3856 C   0  0  0  0  0  0  0  0  0  0  0  0
    1.0060   -5.9100   -4.0159 C   0  0  0  0  0  0  0  0  0  0  0  0
    1.5261   -7.1448   -3.5089 C   0  0  0  0  0  0  0  0  0  0  0  0
    0.7655   -8.0517   -2.8019 C   0  0  0  0  0  0  0  0  0  0  0  0
    1.7708   -9.2806   -2.1604 S   0  0  0  0  0  0  0  0  0  0  0  0
    3.1408   -8.5046   -2.8549 C   0  0  0  0  0  0  0  0  0  0  0  0
    4.4956   -9.0877   -2.6432 C   0  0  0  0  0  0  0  0  0  0  0  0
    2.8869   -7.3997   -3.5285 N   0  0  0  0  0  0  0  0  0  0  0  0
    0.9550   -4.4174   -1.5029 C   0  0  0  0  0  0  0  0  0  0  0  0
    0.1655   -5.2901   -1.1229 O   0  0  0  0  0  0  0  0  0  0  0  0
    2.2816   -4.6093   -1.2868 N   0  0  0  0  0  0  0  0  0  0  0  0
    3.4054   -3.7596   -1.6234 C   0  0  0  0  0  0  0  0  0  0  0  0
    4.5017   -3.9053   -0.5824 C   0  0  0  0  0  0  0  0  0  0  0  0
    5.2301   -5.2498   -0.6750 C   0  0  0  0  0  0  0  0  0  0  0  0
    5.9490   -5.4948   -2.0065 C   0  0  0  0  0  0  0  0  0  0  0  0
    6.9284   -4.3950   -2.4209 C   0  0  0  0  0  0  0  0  0  0  0  0
    7.9436   -4.0201   -1.3481 C   0  0  0  0  0  0  0  0  0  0  0  0
    8.7276   -5.1624   -0.9112 N   0  0  0  0  0  0  0  0  0  0  0  0
   10.0795   -5.2384   -0.6815 C   0  0  0  0  0  0  0  0  0  0  0  0
   10.6131   -6.3152   -0.4724 O   0  0  0  0  0  0  0  0  0  0  0  0
   10.8758   -3.9943   -0.7184 C   0  0  0  0  0  0  0  0  0  0  0  0
   12.0419   -3.9657   -1.4841 C   0  0  0  0  0  0  0  0  0  0  0  0
   12.7623   -2.7759   -1.5900 C   0  0  0  0  0  0  0  0  0  0  0  0
   12.2980   -1.6062   -0.9652 C   0  0  0  0  0  0  0  0  0  0  0  0
   13.0241   -0.3208   -1.1108 C   0  0  0  0  0  0  0  0  0  0  0  0
   13.6478    0.3312    0.0926 C   0  0  0  0  0  0  0  0  0  0  0  0
   14.2821    1.4721    0.1747 N   0  0  0  0  0  0  0  0  0  0  0  0
   14.6155    1.6234    1.5155 C   0  0  0  0  0  0  0  0  0  0  0  0
   15.3303    2.6109    2.1051 C   0  0  0  0  0  0  0  0  0  0  0  0
   15.5506    2.5179    3.5924 C   0  0  0  0  0  0  0  0  0  0  0  0
   16.3874    1.5298    4.1434 C   0  0  0  0  0  0  0  0  0  0  0  0
   16.5751    1.4506    5.5256 C   0  0  0  0  0  0  0  0  0  0  0  0
   15.9522    2.3825    6.3610 C   0  0  0  0  0  0  0  0  0  0  0  0
   16.2297    2.2675    8.1497 S   0  0  0  0  0  0  0  0  0  0  0  0
   15.4436    1.0871    8.5004 O   0  0  0  0  0  0  0  0  0  0  0  0
   17.6786    2.1060    8.2394 O   0  0  0  0  0  0  0  0  0  0  0  0
   15.7137    3.5338    8.6634 O   0  5  0  0  0  0  0  0  0  0  0  0
   15.1502    3.3949    5.8305 C   0  0  0  0  0  0  0  0  0  0  0  0
   14.9411    3.4522    4.4494 C   0  0  0  0  0  0  0  0  0  0  0  0
   15.8810    3.7364    1.3983 C   0  0  0  0  0  0  0  0  0  0  0  0
   16.6668    4.7620    1.8938 C   0  0  0  0  0  0  0  0  0  0  0  0
   16.9187    5.6604    0.8519 C   0  0  0  0  0  0  0  0  0  0  0  0
   16.3417    5.1629   -0.3059 C   0  0  0  0  0  0  0  0  0  0  0  0
   15.7024    3.9863    0.0458 N   0  0  0  0  0  0  0  0  0  0  0  0
   16.3713    5.7239   -1.6333 C   0  0  0  0  0  0  0  0  0  0  0  0
   17.1387    7.0035   -1.8347 C   0  0  0  0  0  0  0  0  0  0  0  0
   16.4780    8.2197   -2.0812 C   0  0  0  0  0  0  0  0  0  0  0  0
   17.2089    9.4002   -2.2393 C   0  0  0  0  0  0  0  0  0  0  0  0
   18.6021    9.3717   -2.1206 C   0  0  0  0  0  0  0  0  0  0  0  0
   19.5238   10.9251   -2.2845 S   0  0  0  0  0  0  0  0  0  0  0  0
   19.4475   11.1734   -3.7214 O   0  0  0  0  0  0  0  0  0  0  0  0
   18.7565   11.8431   -1.4461 O   0  0  0  0  0  0  0  0  0  0  0  0
   20.8542   10.5939   -1.7791 O   0  5  0  0  0  0  0  0  0  0  0  0
   19.2728    8.1782   -1.8470 C   0  0  0  0  0  0  0  0  0  0  0  0
   18.5411    6.9955   -1.7188 C   0  0  0  0  0  0  0  0  0  0  0  0
   15.7836    5.1709   -2.7231 C   0  0  0  0  0  0  0  0  0  0  0  0
   15.0498    3.9936   -2.8195 N   0  0  0  0  0  0  0  0  0  0  0  0
   14.6867    3.9017   -4.0769 C   0  0  0  0  0  0  0  0  0  0  0  0
   13.9028    2.8123   -4.7562 C   0  0  0  0  0  0  0  0  0  0  0  0
   13.5915    2.8850   -6.2100 C   0  0  0  0  0  0  0  0  0  0  0  0
   14.6112    2.7386   -7.1667 C   0  0  0  0  0  0  0  0  0  0  0  0
   14.3184    2.8137   -8.5316 C   0  0  0  0  0  0  0  0  0  0  0  0
   12.9976    3.0099   -8.9446 C   0  0  0  0  0  0  0  0  0  0  0  0
   12.6346    3.0559  -10.7218 S   0  0  0  0  0  0  0  0  0  0  0  0
   13.1689    4.3582  -11.1067 O   0  0  0  0  0  0  0  0  0  0  0  0
   13.3682    1.8965  -11.2234 O   0  0  0  0  0  0  0  0  0  0  0  0
   11.1795    2.9340  -10.7761 O   0  5  0  0  0  0  0  0  0  0  0  0
   11.9681    3.1352   -8.0101 C   0  0  0  0  0  0  0  0  0  0  0  0
   12.2693    3.0882   -6.6461 C   0  0  0  0  0  0  0  0  0  0  0  0
   13.4931    1.7523   -4.0328 C   0  0  0  0  0  0  0  0  0  0  0  0
   12.7382    0.6169   -4.5534 C   0  0  0  0  0  0  0  0  0  0  0  0
   12.4711   -0.2308   -3.5469 C   0  0  0  0  0  0  0  0  0  0  0  0
   13.0733    0.2836   -2.3141 C   0  0  0  0  0  0  0  0  0  0  0  0
   13.6536    1.4661   -2.6976 N   0  0  0  0  0  0  0  0  0  0  0  0
   15.1262    5.0244   -4.9164 C   0  0  0  0  0  0  0  0  0  0  0  0
   15.8252    5.7472   -4.0518 C   0  0  0  0  0  0  0  0  0  0  0  0
   14.0683    0.4843    2.2189 C   0  0  0  0  0  0  0  0  0  0  0  0
   13.5210   -0.3791    1.3762 C   0  0  0  0  0  0  0  0  0  0  0  0
   11.1325   -1.6573   -0.1859 C   0  0  0  0  0  0  0  0  0  0  0  0
   10.4526   -2.8587   -0.0213 C   0  0  0  0  0  0  0  0  0  0  0  0
    0.7326   -2.1022    2.4236 H   0  0  0  0  0  0  0  0  0  0  0  0
    1.0320   -0.7209    1.3962 H   0  0  0  0  0  0  0  0  0  0  0  0
    2.0628   -2.1278    1.2909 H   0  0  0  0  0  0  0  0  0  0  0  0
   -0.8557   -2.0419    0.5674 H   0  0  0  0  0  0  0  0  0  0  0  0
    0.2070   -3.4478    0.4556 H   0  0  0  0  0  0  0  0  0  0  0  0
    1.6178   -1.7520   -1.0290 H   0  0  0  0  0  0  0  0  0  0  0  0
   -1.2501   -0.9075   -1.4590 H   0  0  0  0  0  0  0  0  0  0  0  0
    0.1136   -0.3780   -2.4145 H   0  0  0  0  0  0  0  0  0  0  0  0
   -0.0042    0.0786   -0.7321 H   0  0  0  0  0  0  0  0  0  0  0  0
   -0.6073   -3.2587   -2.3484 H   0  0  0  0  0  0  0  0  0  0  0  0
    1.3370   -1.8039   -3.4757 H   0  0  0  0  0  0  0  0  0  0  0  0
    2.7729   -5.0588   -4.5782 H   0  0  0  0  0  0  0  0  0  0  0  0
   -0.0176   -5.8104   -4.1011 H   0  0  0  0  0  0  0  0  0  0  0  0
   -0.2576   -7.9979   -2.6778 H   0  0  0  0  0  0  0  0  0  0  0  0
    4.4119   -9.9830   -2.0633 H   0  0  0  0  0  0  0  0  0  0  0  0
    5.1102   -8.3825   -2.1238 H   0  0  0  0  0  0  0  0  0  0  0  0
    4.9375   -9.3163   -3.5905 H   0  0  0  0  0  0  0  0  0  0  0  0
    2.5145   -5.4517   -0.8337 H   0  0  0  0  0  0  0  0  0  0  0  0
    3.0811   -2.7404   -1.6553 H   0  0  0  0  0  0  0  0  0  0  0  0
    3.7896   -4.0501   -2.5789 H   0  0  0  0  0  0  0  0  0  0  0  0
    4.0638   -3.8195    0.3901 H   0  0  0  0  0  0  0  0  0  0  0  0
    5.2219   -3.1346   -0.7616 H   0  0  0  0  0  0  0  0  0  0  0  0
    4.5108   -6.0295   -0.5355 H   0  0  0  0  0  0  0  0  0  0  0  0
    5.9872   -5.2376    0.0810 H   0  0  0  0  0  0  0  0  0  0  0  0
    5.2077   -5.5859   -2.7727 H   0  0  0  0  0  0  0  0  0  0  0  0
    6.5322   -6.3821   -1.8742 H   0  0  0  0  0  0  0  0  0  0  0  0
    6.3642   -3.5201   -2.6683 H   0  0  0  0  0  0  0  0  0  0  0  0
    7.4866   -4.7790   -3.2491 H   0  0  0  0  0  0  0  0  0  0  0  0
    7.4215   -3.6178   -0.5052 H   0  0  0  0  0  0  0  0  0  0  0  0
    8.6159   -3.3019   -1.7688 H   0  0  0  0  0  0  0  0  0  0  0  0
    8.2221   -5.9934   -0.7594 H   0  0  0  0  0  0  0  0  0  0  0  0
   12.3684   -4.8170   -1.9676 H   0  0  0  0  0  0  0  0  0  0  0  0
   13.6413   -2.7547   -2.1303 H   0  0  0  0  0  0  0  0  0  0  0  0
   16.8658    0.8589    3.5221 H   0  0  0  0  0  0  0  0  0  0  0  0
   17.1697    0.7089    5.9273 H   0  0  0  0  0  0  0  0  0  0  0  0
   14.7157    4.0946    6.4523 H   0  0  0  0  0  0  0  0  0  0  0  0
   14.3336    4.1872    4.0547 H   0  0  0  0  0  0  0  0  0  0  0  0
   17.0078    4.8489    2.8639 H   0  0  0  0  0  0  0  0  0  0  0  0
   17.4452    6.5444    0.9317 H   0  0  0  0  0  0  0  0  0  0  0  0
   15.1958    3.4119   -0.5728 H   0  0  0  0  0  0  0  0  0  0  0  0
   15.4482    8.2408   -2.1457 H   0  0  0  0  0  0  0  0  0  0  0  0
   16.7234   10.2879   -2.4425 H   0  0  0  0  0  0  0  0  0  0  0  0
   20.2993    8.1700   -1.7405 H   0  0  0  0  0  0  0  0  0  0  0  0
   19.0337    6.1070   -1.5373 H   0  0  0  0  0  0  0  0  0  0  0  0
   15.5826    2.5746   -6.8593 H   0  0  0  0  0  0  0  0  0  0  0  0
   15.0729    2.7248   -9.2300 H   0  0  0  0  0  0  0  0  0  0  0  0
   10.9930    3.2614   -8.3237 H   0  0  0  0  0  0  0  0  0  0  0  0
   11.5144    3.2037   -5.9519 H   0  0  0  0  0  0  0  0  0  0  0  0
   12.4551    0.4865   -5.5372 H   0  0  0  0  0  0  0  0  0  0  0  0
   11.9285   -1.1048   -3.6285 H   0  0  0  0  0  0  0  0  0  0  0  0
   14.1393    2.0544   -2.0753 H   0  0  0  0  0  0  0  0  0  0  0  0
   14.9400    5.2034   -5.9156 H   0  0  0  0  0  0  0  0  0  0  0  0
   16.3346    6.6112   -4.2947 H   0  0  0  0  0  0  0  0  0  0  0  0
   14.1000    0.3603    3.2429 H   0  0  0  0  0  0  0  0  0  0  0  0
   13.1125   -1.3070    1.5690 H   0  0  0  0  0  0  0  0  0  0  0  0
   10.7786   -0.8000    0.2668 H   0  0  0  0  0  0  0  0  0  0  0  0
    9.6397   -2.9120    0.6122 H   0  0  0  0  0  0  0  0  0  0  0  0
  1  2  1  0  0  0  0
  1 89  1  0  0  0  0
  1 90  1  0  0  0  0
  1 91  1  0  0  0  0
  2 92  1  0  0  0  0
  2 93  1  0  0  0  0
  3  5  1  0  0  0  0
  3  4  1  0  0  0  0
  3  2  1  0  0  0  0
  3 94  1  1  0  0  0
  4 95  1  0  0  0  0
  4 96  1  0  0  0  0
  4 97  1  0  0  0  0
  5  6  1  0  0  0  0
  5 17  1  0  0  0  0
  5 98  1  6  0  0  0
  6  7  1  0  0  0  0
  6 99  1  0  0  0  0
  7  8  2  0  0  0  0
  7  9  1  0  0  0  0
  9 10  2  0  0  0  0
  9100  1  0  0  0  0
 10 11  1  0  0  0  0
 10101  1  0  0  0  0
 11 12  2  0  0  0  0
 11 16  1  0  0  0  0
 12 13  1  0  0  0  0
 12102  1  0  0  0  0
 13 14  1  0  0  0  0
 14 15  1  0  0  0  0
 14 16  2  0  0  0  0
 15103  1  0  0  0  0
 15104  1  0  0  0  0
 15105  1  0  0  0  0
 17 18  2  0  0  0  0
 17 19  1  0  0  0  0
 19 20  1  0  0  0  0
 19106  1  0  0  0  0
 20 21  1  0  0  0  0
 20107  1  0  0  0  0
 20108  1  0  0  0  0
 21 22  1  0  0  0  0
 21109  1  0  0  0  0
 21110  1  0  0  0  0
 22 23  1  0  0  0  0
 22111  1  0  0  0  0
 22112  1  0  0  0  0
 23 24  1  0  0  0  0
 23113  1  0  0  0  0
 23114  1  0  0  0  0
 24 25  1  0  0  0  0
 24115  1  0  0  0  0
 24116  1  0  0  0  0
 25 26  1  0  0  0  0
 25117  1  0  0  0  0
 25118  1  0  0  0  0
 26 27  1  0  0  0  0
 26119  1  0  0  0  0
 27 28  2  0  0  0  0
 27 29  1  0  0  0  0
 29 30  1  0  0  0  0
 29 88  2  0  0  0  0
 30 31  2  0  0  0  0
 30120  1  0  0  0  0
 31 32  1  0  0  0  0
 31121  1  0  0  0  0
 32 33  1  0  0  0  0
 32 87  2  0  0  0  0
 33 34  1  0  0  0  0
 33 81  2  0  0  0  0
 34 35  2  0  0  0  0
 34 86  1  0  0  0  0
 35 36  1  0  0  0  0
 36 37  2  0  0  0  0
 36 85  1  0  0  0  0
 37 38  1  0  0  0  0
 37 48  1  0  0  0  0
 38 39  1  0  0  0  0
 38 47  2  0  0  0  0
 39 40  2  0  0  0  0
 39122  1  0  0  0  0
 40 41  1  0  0  0  0
 40123  1  0  0  0  0
 41 42  1  0  0  0  0
 41 46  2  0  0  0  0
 42 43  2  0  0  0  0
 42 44  2  0  0  0  0
 42 45  1  0  0  0  0
 46 47  1  0  0  0  0
 46124  1  0  0  0  0
 47125  1  0  0  0  0
 48 49  2  0  0  0  0
 48 52  1  0  0  0  0
 49 50  1  0  0  0  0
 49126  1  0  0  0  0
 50 51  2  0  0  0  0
 50127  1  0  0  0  0
 51 52  1  0  0  0  0
 51 53  1  0  0  0  0
 52128  1  0  0  0  0
 53 54  1  0  0  0  0
 53 64  2  0  0  0  0
 54 55  1  0  0  0  0
 54 63  2  0  0  0  0
 55 56  2  0  0  0  0
 55129  1  0  0  0  0
 56 57  1  0  0  0  0
 56130  1  0  0  0  0
 57 58  1  0  0  0  0
 57 62  2  0  0  0  0
 58 59  2  0  0  0  0
 58 60  2  0  0  0  0
 58 61  1  0  0  0  0
 62 63  1  0  0  0  0
 62131  1  0  0  0  0
 63132  1  0  0  0  0
 64 65  1  0  0  0  0
 64 84  1  0  0  0  0
 65 66  2  0  0  0  0
 66 67  1  0  0  0  0
 66 83  1  0  0  0  0
 67 68  1  0  0  0  0
 67 78  2  0  0  0  0
 68 69  1  0  0  0  0
 68 77  2  0  0  0  0
 69 70  2  0  0  0  0
 69133  1  0  0  0  0
 70 71  1  0  0  0  0
 70134  1  0  0  0  0
 71 72  1  0  0  0  0
 71 76  2  0  0  0  0
 72 73  2  0  0  0  0
 72 74  2  0  0  0  0
 72 75  1  0  0  0  0
 76 77  1  0  0  0  0
 76135  1  0  0  0  0
 77136  1  0  0  0  0
 78 79  1  0  0  0  0
 78 82  1  0  0  0  0
 79 80  2  0  0  0  0
 79137  1  0  0  0  0
 80 81  1  0  0  0  0
 80138  1  0  0  0  0
 81 82  1  0  0  0  0
 82139  1  0  0  0  0
 83 84  2  0  0  0  0
 83140  1  0  0  0  0
 84141  1  0  0  0  0
 85 86  2  0  0  0  0
 85142  1  0  0  0  0
 86143  1  0  0  0  0
 87 88  1  0  0  0  0
 87144  1  0  0  0  0
 88145  1  0  0  0  0
M  CHG  3  45  -1  61  -1  75  -1
M  END
$$$$
