3_0_2068
 OpenBabel04152301363D

149159  0  0  0  0  0  0  0  0999 V2000
    2.7866    1.2032    0.1352 C   0  0  0  0  0  0  0  0  0  0  0  0
    1.4388    0.5460    0.2206 C   0  0  0  0  0  0  0  0  0  0  0  0
    0.3266    1.2739    0.6231 C   0  0  0  0  0  0  0  0  0  0  0  0
   -0.9311    0.6579    0.7368 C   0  0  0  0  0  0  0  0  0  0  0  0
   -1.8768    1.2797    1.7374 C   0  0  0  0  0  0  0  0  0  0  0  0
   -1.1248   -0.6453    0.2420 C   0  0  0  0  0  0  0  0  0  0  0  0
   -2.4102   -1.2306    0.1917 N   0  0  0  0  0  0  0  0  0  0  0  0
   -3.6898   -0.7886    0.0177 C   0  0  0  0  0  0  0  0  0  0  0  0
   -4.5610   -1.4364    0.6171 O   0  0  0  0  0  0  0  0  0  0  0  0
   -4.1181    0.2592   -1.0674 C   0  0  0  0  0  0  0  0  0  0  0  0
   -3.6949   -0.2804   -2.4411 C   0  0  0  0  0  0  0  0  0  0  0  0
   -5.6660    0.4087   -1.0328 C   0  0  0  0  0  0  0  0  0  0  0  0
   -5.9117    1.3938    0.1034 C   0  0  0  0  0  0  0  0  0  0  0  0
   -4.7596    2.3844    0.0027 C   0  0  0  0  0  0  0  0  0  0  0  0
   -3.7225    1.7347   -0.9224 C   0  0  0  0  0  0  0  0  0  0  0  0
    0.0304   -1.4484   -0.0272 C   0  0  0  0  0  0  0  0  0  0  0  0
   -0.1226   -2.9406   -0.2153 C   0  0  0  0  0  0  0  0  0  0  0  0
   -1.2459   -3.4452   -0.1021 O   0  0  0  0  0  0  0  0  0  0  0  0
    0.8768   -3.8471   -0.4651 N   0  0  0  0  0  0  0  0  0  0  0  0
    2.3152   -3.7956   -0.6558 C   0  0  0  0  0  0  0  0  0  0  0  0
    3.0664   -3.9608    0.6698 C   0  0  0  0  0  0  0  0  0  0  0  0
    3.4063   -5.4229    1.0003 C   0  0  0  0  0  0  0  0  0  0  0  0
    4.3497   -6.1148    0.0049 C   0  0  0  0  0  0  0  0  0  0  0  0
    5.6895   -5.4086   -0.2245 C   0  0  0  0  0  0  0  0  0  0  0  0
    6.5853   -5.3434    1.0092 C   0  0  0  0  0  0  0  0  0  0  0  0
    7.0209   -6.6700    1.4216 N   0  0  0  0  0  0  0  0  0  0  0  0
    8.2926   -7.1675    1.5314 C   0  0  0  0  0  0  0  0  0  0  0  0
    8.4688   -8.3833    1.6402 O   0  0  0  0  0  0  0  0  0  0  0  0
    9.4506   -6.2514    1.5174 C   0  0  0  0  0  0  0  0  0  0  0  0
   10.5802   -6.5884    0.7672 C   0  0  0  0  0  0  0  0  0  0  0  0
   11.6734   -5.7199    0.7346 C   0  0  0  0  0  0  0  0  0  0  0  0
   11.6298   -4.4976    1.4251 C   0  0  0  0  0  0  0  0  0  0  0  0
   12.7650   -3.5430    1.3745 C   0  0  0  0  0  0  0  0  0  0  0  0
   13.5457   -3.2319    2.6224 C   0  0  0  0  0  0  0  0  0  0  0  0
   14.5292   -2.3856    2.7903 N   0  0  0  0  0  0  0  0  0  0  0  0
   14.8583   -2.4512    4.1394 C   0  0  0  0  0  0  0  0  0  0  0  0
   15.8472   -1.8067    4.8046 C   0  0  0  0  0  0  0  0  0  0  0  0
   15.9723   -2.0702    6.2826 C   0  0  0  0  0  0  0  0  0  0  0  0
   16.4083   -3.3182    6.7650 C   0  0  0  0  0  0  0  0  0  0  0  0
   16.4796   -3.5611    8.1392 C   0  0  0  0  0  0  0  0  0  0  0  0
   16.1474   -2.5432    9.0378 C   0  0  0  0  0  0  0  0  0  0  0  0
   16.2462   -2.8850   10.8165 S   0  0  0  0  0  0  0  0  0  0  0  0
   15.0618   -3.7135   11.0285 O   0  0  0  0  0  0  0  0  0  0  0  0
   17.5265   -3.5770   10.9409 O   0  0  0  0  0  0  0  0  0  0  0  0
   16.1963   -1.5591   11.4274 O   0  5  0  0  0  0  0  0  0  0  0  0
   15.7616   -1.2820    8.5789 C   0  0  0  0  0  0  0  0  0  0  0  0
   15.6636   -1.0524    7.2032 C   0  0  0  0  0  0  0  0  0  0  0  0
   16.7660   -0.8876    4.1873 C   0  0  0  0  0  0  0  0  0  0  0  0
   17.8386   -0.2269    4.7599 C   0  0  0  0  0  0  0  0  0  0  0  0
   18.4119    0.5994    3.7869 C   0  0  0  0  0  0  0  0  0  0  0  0
   17.7296    0.4125    2.5949 C   0  0  0  0  0  0  0  0  0  0  0  0
   16.7195   -0.4973    2.8571 N   0  0  0  0  0  0  0  0  0  0  0  0
   17.9821    1.0218    1.3132 C   0  0  0  0  0  0  0  0  0  0  0  0
   19.1414    1.9754    1.2078 C   0  0  0  0  0  0  0  0  0  0  0  0
   18.9351    3.3600    1.0785 C   0  0  0  0  0  0  0  0  0  0  0  0
   20.0248    4.2316    1.0072 C   0  0  0  0  0  0  0  0  0  0  0  0
   21.3244    3.7217    1.0921 C   0  0  0  0  0  0  0  0  0  0  0  0
   22.7215    4.8774    1.0426 S   0  0  0  0  0  0  0  0  0  0  0  0
   22.7694    5.2348   -0.3724 O   0  0  0  0  0  0  0  0  0  0  0  0
   22.2903    5.9419    1.9456 O   0  0  0  0  0  0  0  0  0  0  0  0
   23.8475    4.0798    1.5230 O   0  5  0  0  0  0  0  0  0  0  0  0
   21.5471    2.3522    1.2489 C   0  0  0  0  0  0  0  0  0  0  0  0
   20.4559    1.4814    1.2936 C   0  0  0  0  0  0  0  0  0  0  0  0
   17.2708    0.7807    0.1841 C   0  0  0  0  0  0  0  0  0  0  0  0
   16.1822   -0.0641   -0.0001 N   0  0  0  0  0  0  0  0  0  0  0  0
   15.8462    0.0574   -1.2624 C   0  0  0  0  0  0  0  0  0  0  0  0
   14.7550   -0.6466   -2.0195 C   0  0  0  0  0  0  0  0  0  0  0  0
   14.5274   -0.3806   -3.4652 C   0  0  0  0  0  0  0  0  0  0  0  0
   15.4378   -0.8530   -4.4264 C   0  0  0  0  0  0  0  0  0  0  0  0
   15.2102   -0.6294   -5.7873 C   0  0  0  0  0  0  0  0  0  0  0  0
   14.0583    0.0512   -6.1918 C   0  0  0  0  0  0  0  0  0  0  0  0
   13.7467    0.2671   -7.9664 S   0  0  0  0  0  0  0  0  0  0  0  0
   14.7023    1.3124   -8.3174 O   0  0  0  0  0  0  0  0  0  0  0  0
   14.0347   -1.0613   -8.5016 O   0  0  0  0  0  0  0  0  0  0  0  0
   12.3398    0.6590   -8.0197 O   0  5  0  0  0  0  0  0  0  0  0  0
   13.1372    0.5183   -5.2521 C   0  0  0  0  0  0  0  0  0  0  0  0
   13.3807    0.3143   -3.8910 C   0  0  0  0  0  0  0  0  0  0  0  0
   13.9892   -1.5507   -1.3788 C   0  0  0  0  0  0  0  0  0  0  0  0
   12.9052   -2.3178   -1.9846 C   0  0  0  0  0  0  0  0  0  0  0  0
   12.3409   -3.0956   -1.0467 C   0  0  0  0  0  0  0  0  0  0  0  0
   13.0503   -2.9083    0.2210 C   0  0  0  0  0  0  0  0  0  0  0  0
   14.0090   -1.9711   -0.0702 N   0  0  0  0  0  0  0  0  0  0  0  0
   16.6682    1.0117   -2.0185 C   0  0  0  0  0  0  0  0  0  0  0  0
   17.5435    1.3968   -1.0991 C   0  0  0  0  0  0  0  0  0  0  0  0
   13.9387   -3.3842    4.7532 C   0  0  0  0  0  0  0  0  0  0  0  0
   13.1519   -3.9466    3.8476 C   0  0  0  0  0  0  0  0  0  0  0  0
   10.4947   -4.1789    2.1852 C   0  0  0  0  0  0  0  0  0  0  0  0
    9.4315   -5.0729    2.2701 C   0  0  0  0  0  0  0  0  0  0  0  0
    1.2872   -0.8223   -0.0248 C   0  0  0  0  0  0  0  0  0  0  0  0
    2.6897    2.2457    0.3560 H   0  0  0  0  0  0  0  0  0  0  0  0
    3.1801    1.0829   -0.8525 H   0  0  0  0  0  0  0  0  0  0  0  0
    3.4502    0.7492    0.8412 H   0  0  0  0  0  0  0  0  0  0  0  0
    0.4250    2.2778    0.8410 H   0  0  0  0  0  0  0  0  0  0  0  0
   -1.5441    2.2683    1.9760 H   0  0  0  0  0  0  0  0  0  0  0  0
   -1.8960    0.6855    2.6270 H   0  0  0  0  0  0  0  0  0  0  0  0
   -2.8601    1.3258    1.3179 H   0  0  0  0  0  0  0  0  0  0  0  0
   -2.3732   -2.2069    0.3133 H   0  0  0  0  0  0  0  0  0  0  0  0
   -3.9788   -1.3088   -2.5232 H   0  0  0  0  0  0  0  0  0  0  0  0
   -2.6337   -0.1938   -2.5468 H   0  0  0  0  0  0  0  0  0  0  0  0
   -4.1773    0.2853   -3.2106 H   0  0  0  0  0  0  0  0  0  0  0  0
   -6.1352   -0.5314   -0.8302 H   0  0  0  0  0  0  0  0  0  0  0  0
   -6.0699    0.7439   -1.9652 H   0  0  0  0  0  0  0  0  0  0  0  0
   -5.8983    0.8924    1.0486 H   0  0  0  0  0  0  0  0  0  0  0  0
   -6.8668    1.8706    0.0300 H   0  0  0  0  0  0  0  0  0  0  0  0
   -4.3362    2.5617    0.9693 H   0  0  0  0  0  0  0  0  0  0  0  0
   -5.0873    3.3290   -0.3784 H   0  0  0  0  0  0  0  0  0  0  0  0
   -3.7312    2.2139   -1.8791 H   0  0  0  0  0  0  0  0  0  0  0  0
   -2.7361    1.8292   -0.5186 H   0  0  0  0  0  0  0  0  0  0  0  0
    0.5304   -4.7662   -0.5320 H   0  0  0  0  0  0  0  0  0  0  0  0
    2.5748   -2.8512   -1.0866 H   0  0  0  0  0  0  0  0  0  0  0  0
    2.5961   -4.6007   -1.3022 H   0  0  0  0  0  0  0  0  0  0  0  0
    2.4566   -3.5681    1.4565 H   0  0  0  0  0  0  0  0  0  0  0  0
    3.9932   -3.4344    0.5756 H   0  0  0  0  0  0  0  0  0  0  0  0
    2.4915   -5.9771    1.0297 H   0  0  0  0  0  0  0  0  0  0  0  0
    3.9239   -5.4037    1.9366 H   0  0  0  0  0  0  0  0  0  0  0  0
    3.8457   -6.1819   -0.9366 H   0  0  0  0  0  0  0  0  0  0  0  0
    4.5858   -7.0666    0.4329 H   0  0  0  0  0  0  0  0  0  0  0  0
    5.4899   -4.4080   -0.5467 H   0  0  0  0  0  0  0  0  0  0  0  0
    6.2174   -5.9840   -0.9560 H   0  0  0  0  0  0  0  0  0  0  0  0
    6.0403   -4.8912    1.8113 H   0  0  0  0  0  0  0  0  0  0  0  0
    7.4522   -4.7656    0.7651 H   0  0  0  0  0  0  0  0  0  0  0  0
    6.2996   -7.2983    1.6545 H   0  0  0  0  0  0  0  0  0  0  0  0
   10.6066   -7.4750    0.2396 H   0  0  0  0  0  0  0  0  0  0  0  0
   12.5178   -5.9776    0.2003 H   0  0  0  0  0  0  0  0  0  0  0  0
   16.6773   -4.0593    6.0991 H   0  0  0  0  0  0  0  0  0  0  0  0
   16.7756   -4.4860    8.4884 H   0  0  0  0  0  0  0  0  0  0  0  0
   15.5507   -0.5262    9.2492 H   0  0  0  0  0  0  0  0  0  0  0  0
   15.3618   -0.1272    6.8598 H   0  0  0  0  0  0  0  0  0  0  0  0
   18.1600   -0.3263    5.7355 H   0  0  0  0  0  0  0  0  0  0  0  0
   19.2081    1.2397    3.9322 H   0  0  0  0  0  0  0  0  0  0  0  0
   16.0646   -0.8198    2.1966 H   0  0  0  0  0  0  0  0  0  0  0  0
   17.9743    3.7344    1.0360 H   0  0  0  0  0  0  0  0  0  0  0  0
   19.8716    5.2457    0.8926 H   0  0  0  0  0  0  0  0  0  0  0  0
   22.5088    1.9869    1.3310 H   0  0  0  0  0  0  0  0  0  0  0  0
   20.6154    0.4664    1.3904 H   0  0  0  0  0  0  0  0  0  0  0  0
   16.2797   -1.3683   -4.1254 H   0  0  0  0  0  0  0  0  0  0  0  0
   15.8885   -0.9648   -6.4891 H   0  0  0  0  0  0  0  0  0  0  0  0
   12.2837    1.0101   -5.5600 H   0  0  0  0  0  0  0  0  0  0  0  0
   12.7134    0.6767   -3.1921 H   0  0  0  0  0  0  0  0  0  0  0  0
   12.6185   -2.2700   -2.9748 H   0  0  0  0  0  0  0  0  0  0  0  0
   11.5363   -3.7246   -1.1953 H   0  0  0  0  0  0  0  0  0  0  0  0
   14.6504   -1.6318    0.5951 H   0  0  0  0  0  0  0  0  0  0  0  0
   16.5863    1.3050   -3.0045 H   0  0  0  0  0  0  0  0  0  0  0  0
   18.3207    2.0525   -1.2754 H   0  0  0  0  0  0  0  0  0  0  0  0
   13.9005   -3.5855    5.7647 H   0  0  0  0  0  0  0  0  0  0  0  0
   12.4474   -4.6909    3.9693 H   0  0  0  0  0  0  0  0  0  0  0  0
   10.4478   -3.2767    2.6841 H   0  0  0  0  0  0  0  0  0  0  0  0
    8.6306   -4.8666    2.8873 H   0  0  0  0  0  0  0  0  0  0  0  0
    2.1278   -1.3914   -0.2105 H   0  0  0  0  0  0  0  0  0  0  0  0
  1  2  1  0  0  0  0
  1 90  1  0  0  0  0
  1 91  1  0  0  0  0
  1 92  1  0  0  0  0
  2  3  1  0  0  0  0
  2 89  2  0  0  0  0
  3  4  2  0  0  0  0
  3 93  1  0  0  0  0
  4  5  1  0  0  0  0
  4  6  1  0  0  0  0
  5 94  1  0  0  0  0
  5 95  1  0  0  0  0
  5 96  1  0  0  0  0
  6  7  1  0  0  0  0
  6 16  2  0  0  0  0
  7  8  1  0  0  0  0
  7 97  1  0  0  0  0
  8  9  2  0  0  0  0
  8 10  1  0  0  0  0
 10 11  1  0  0  0  0
 10 12  1  0  0  0  0
 10 15  1  0  0  0  0
 11 98  1  0  0  0  0
 11 99  1  0  0  0  0
 11100  1  0  0  0  0
 12 13  1  0  0  0  0
 12101  1  0  0  0  0
 12102  1  0  0  0  0
 13 14  1  0  0  0  0
 13103  1  0  0  0  0
 13104  1  0  0  0  0
 14 15  1  0  0  0  0
 14105  1  0  0  0  0
 14106  1  0  0  0  0
 15107  1  0  0  0  0
 15108  1  0  0  0  0
 16 17  1  0  0  0  0
 16 89  1  0  0  0  0
 17 18  2  0  0  0  0
 17 19  1  0  0  0  0
 19 20  1  0  0  0  0
 19109  1  0  0  0  0
 20 21  1  0  0  0  0
 20110  1  0  0  0  0
 20111  1  0  0  0  0
 21 22  1  0  0  0  0
 21112  1  0  0  0  0
 21113  1  0  0  0  0
 22 23  1  0  0  0  0
 22114  1  0  0  0  0
 22115  1  0  0  0  0
 23 24  1  0  0  0  0
 23116  1  0  0  0  0
 23117  1  0  0  0  0
 24 25  1  0  0  0  0
 24118  1  0  0  0  0
 24119  1  0  0  0  0
 25 26  1  0  0  0  0
 25120  1  0  0  0  0
 25121  1  0  0  0  0
 26 27  1  0  0  0  0
 26122  1  0  0  0  0
 27 28  2  0  0  0  0
 27 29  1  0  0  0  0
 29 30  1  0  0  0  0
 29 88  2  0  0  0  0
 30 31  2  0  0  0  0
 30123  1  0  0  0  0
 31 32  1  0  0  0  0
 31124  1  0  0  0  0
 32 33  1  0  0  0  0
 32 87  2  0  0  0  0
 33 34  1  0  0  0  0
 33 81  2  0  0  0  0
 34 35  2  0  0  0  0
 34 86  1  0  0  0  0
 35 36  1  0  0  0  0
 36 37  2  0  0  0  0
 36 85  1  0  0  0  0
 37 38  1  0  0  0  0
 37 48  1  0  0  0  0
 38 39  1  0  0  0  0
 38 47  2  0  0  0  0
 39 40  2  0  0  0  0
 39125  1  0  0  0  0
 40 41  1  0  0  0  0
 40126  1  0  0  0  0
 41 42  1  0  0  0  0
 41 46  2  0  0  0  0
 42 43  2  0  0  0  0
 42 44  2  0  0  0  0
 42 45  1  0  0  0  0
 46 47  1  0  0  0  0
 46127  1  0  0  0  0
 47128  1  0  0  0  0
 48 49  2  0  0  0  0
 48 52  1  0  0  0  0
 49 50  1  0  0  0  0
 49129  1  0  0  0  0
 50 51  2  0  0  0  0
 50130  1  0  0  0  0
 51 52  1  0  0  0  0
 51 53  1  0  0  0  0
 52131  1  0  0  0  0
 53 54  1  0  0  0  0
 53 64  2  0  0  0  0
 54 55  1  0  0  0  0
 54 63  2  0  0  0  0
 55 56  2  0  0  0  0
 55132  1  0  0  0  0
 56 57  1  0  0  0  0
 56133  1  0  0  0  0
 57 58  1  0  0  0  0
 57 62  2  0  0  0  0
 58 59  2  0  0  0  0
 58 60  2  0  0  0  0
 58 61  1  0  0  0  0
 62 63  1  0  0  0  0
 62134  1  0  0  0  0
 63135  1  0  0  0  0
 64 65  1  0  0  0  0
 64 84  1  0  0  0  0
 65 66  2  0  0  0  0
 66 67  1  0  0  0  0
 66 83  1  0  0  0  0
 67 68  1  0  0  0  0
 67 78  2  0  0  0  0
 68 69  1  0  0  0  0
 68 77  2  0  0  0  0
 69 70  2  0  0  0  0
 69136  1  0  0  0  0
 70 71  1  0  0  0  0
 70137  1  0  0  0  0
 71 72  1  0  0  0  0
 71 76  2  0  0  0  0
 72 73  2  0  0  0  0
 72 74  2  0  0  0  0
 72 75  1  0  0  0  0
 76 77  1  0  0  0  0
 76138  1  0  0  0  0
 77139  1  0  0  0  0
 78 79  1  0  0  0  0
 78 82  1  0  0  0  0
 79 80  2  0  0  0  0
 79140  1  0  0  0  0
 80 81  1  0  0  0  0
 80141  1  0  0  0  0
 81 82  1  0  0  0  0
 82142  1  0  0  0  0
 83 84  2  0  0  0  0
 83143  1  0  0  0  0
 84144  1  0  0  0  0
 85 86  2  0  0  0  0
 85145  1  0  0  0  0
 86146  1  0  0  0  0
 87 88  1  0  0  0  0
 87147  1  0  0  0  0
 88148  1  0  0  0  0
 89149  1  0  0  0  0
M  CHG  3  45  -1  61  -1  75  -1
M  END
$$$$
