3_0_8838
 OpenBabel04152301373D

141151  0  0  1  0  0  0  0  0999 V2000
    0.3179   -8.5064    1.2990 C   0  0  0  0  0  0  0  0  0  0  0  0
    0.7365   -8.1630   -0.1017 C   0  0  0  0  0  0  0  0  0  0  0  0
    1.4555   -9.0843   -0.8669 C   0  0  0  0  0  0  0  0  0  0  0  0
    1.9619   -8.7127   -2.1100 C   0  0  0  0  0  0  0  0  0  0  0  0
    1.8121   -7.4015   -2.5583 C   0  0  0  0  0  0  0  0  0  0  0  0
    2.4192   -7.0641   -3.7053 F   0  0  0  0  0  0  0  0  0  0  0  0
    1.1028   -6.4625   -1.8057 C   0  0  0  0  0  0  0  0  0  0  0  0
    1.1405   -5.0423   -2.2423 C   0  0  0  0  0  0  0  0  0  0  0  0
    1.0415   -4.7688   -3.4362 O   0  0  0  0  0  0  0  0  0  0  0  0
    1.3656   -4.0117   -1.3519 N   0  0  0  0  0  0  0  0  0  0  0  0
    1.3234   -3.9853    0.0927 C   0  0  2  0  0  0  0  0  0  0  0  0
    1.7045   -2.6339    0.6120 C   0  0  0  0  0  0  0  0  0  0  0  0
    2.5527   -2.7117    1.6466 C   0  0  0  0  0  0  0  0  0  0  0  0
    2.9833   -4.1161    1.9139 C   0  0  1  0  0  0  0  0  0  0  0  0
    2.7224   -4.7198    3.3022 C   0  0  0  0  0  0  0  0  0  0  0  0
    3.6583   -5.2229    3.9351 O   0  0  0  0  0  0  0  0  0  0  0  0
    1.4881   -4.8200    3.8629 N   0  0  0  0  0  0  0  0  0  0  0  0
    0.2078   -4.2453    3.4993 C   0  0  0  0  0  0  0  0  0  0  0  0
   -0.9058   -5.2904    3.4233 C   0  0  0  0  0  0  0  0  0  0  0  0
   -1.2029   -6.0120    4.7429 C   0  0  0  0  0  0  0  0  0  0  0  0
   -1.6148   -5.0927    5.8968 C   0  0  0  0  0  0  0  0  0  0  0  0
   -2.8116   -4.1844    5.6017 C   0  0  0  0  0  0  0  0  0  0  0  0
   -4.0901   -4.9229    5.2160 C   0  0  0  0  0  0  0  0  0  0  0  0
   -4.5978   -5.7366    6.3091 N   0  0  0  0  0  0  0  0  0  0  0  0
   -5.8257   -5.6918    6.9253 C   0  0  0  0  0  0  0  0  0  0  0  0
   -6.0101   -6.2986    7.9733 O   0  0  0  0  0  0  0  0  0  0  0  0
   -6.9141   -4.8897    6.3253 C   0  0  0  0  0  0  0  0  0  0  0  0
   -7.6550   -4.0346    7.1436 C   0  0  0  0  0  0  0  0  0  0  0  0
   -8.6286   -3.2094    6.5762 C   0  0  0  0  0  0  0  0  0  0  0  0
   -8.8369   -3.2048    5.1863 C   0  0  0  0  0  0  0  0  0  0  0  0
   -9.7733   -2.2393    4.5542 C   0  0  0  0  0  0  0  0  0  0  0  0
  -10.9912   -2.7249    3.8164 C   0  0  0  0  0  0  0  0  0  0  0  0
  -11.8872   -2.0306    3.1628 N   0  0  0  0  0  0  0  0  0  0  0  0
  -12.7771   -2.9593    2.6355 C   0  0  0  0  0  0  0  0  0  0  0  0
  -13.9043   -2.7395    1.9170 C   0  0  0  0  0  0  0  0  0  0  0  0
  -14.6933   -3.9397    1.4600 C   0  0  0  0  0  0  0  0  0  0  0  0
  -15.4029   -4.7391    2.3743 C   0  0  0  0  0  0  0  0  0  0  0  0
  -16.1546   -5.8293    1.9273 C   0  0  0  0  0  0  0  0  0  0  0  0
  -16.2259   -6.1050    0.5583 C   0  0  0  0  0  0  0  0  0  0  0  0
  -17.2388   -7.5047    0.0063 S   0  0  0  0  0  0  0  0  0  0  0  0
  -16.4511   -8.6460    0.4660 O   0  0  0  0  0  0  0  0  0  0  0  0
  -18.4979   -7.2856    0.7134 O   0  0  0  0  0  0  0  0  0  0  0  0
  -17.3035   -7.3374   -1.4434 O   0  5  0  0  0  0  0  0  0  0  0  0
  -15.5539   -5.3053   -0.3677 C   0  0  0  0  0  0  0  0  0  0  0  0
  -14.7792   -4.2339    0.0863 C   0  0  0  0  0  0  0  0  0  0  0  0
  -14.3869   -1.4328    1.5527 C   0  0  0  0  0  0  0  0  0  0  0  0
  -15.5564   -1.1048    0.8886 C   0  0  0  0  0  0  0  0  0  0  0  0
  -15.5670    0.2777    0.6797 C   0  0  0  0  0  0  0  0  0  0  0  0
  -14.4394    0.8196    1.2753 C   0  0  0  0  0  0  0  0  0  0  0  0
  -13.7248   -0.2413    1.8070 N   0  0  0  0  0  0  0  0  0  0  0  0
  -14.0399    2.2030    1.3433 C   0  0  0  0  0  0  0  0  0  0  0  0
  -14.9262    3.2239    0.6791 C   0  0  0  0  0  0  0  0  0  0  0  0
  -14.5178    3.8907   -0.4897 C   0  0  0  0  0  0  0  0  0  0  0  0
  -15.3661    4.8106   -1.1116 C   0  0  0  0  0  0  0  0  0  0  0  0
  -16.6401    5.0421   -0.5837 C   0  0  0  0  0  0  0  0  0  0  0  0
  -17.7398    6.2021   -1.4407 S   0  0  0  0  0  0  0  0  0  0  0  0
  -17.1152    7.4885   -1.1449 O   0  0  0  0  0  0  0  0  0  0  0  0
  -17.6465    5.7627   -2.8307 O   0  0  0  0  0  0  0  0  0  0  0  0
  -19.0386    5.9807   -0.8089 O   0  5  0  0  0  0  0  0  0  0  0  0
  -17.0730    4.3704    0.5611 C   0  0  0  0  0  0  0  0  0  0  0  0
  -16.2099    3.4751    1.1978 C   0  0  0  0  0  0  0  0  0  0  0  0
  -12.9327    2.6569    1.9810 C   0  0  0  0  0  0  0  0  0  0  0  0
  -11.9637    1.9369    2.6711 N   0  0  0  0  0  0  0  0  0  0  0  0
  -11.0862    2.8220    3.0804 C   0  0  0  0  0  0  0  0  0  0  0  0
   -9.8393    2.6074    3.8937 C   0  0  0  0  0  0  0  0  0  0  0  0
   -8.9528    3.7498    4.2513 C   0  0  0  0  0  0  0  0  0  0  0  0
   -9.3785    4.7352    5.1590 C   0  0  0  0  0  0  0  0  0  0  0  0
   -8.5447    5.8114    5.4790 C   0  0  0  0  0  0  0  0  0  0  0  0
   -7.2687    5.8889    4.9133 C   0  0  0  0  0  0  0  0  0  0  0  0
   -6.1856    7.2675    5.3800 S   0  0  0  0  0  0  0  0  0  0  0  0
   -6.8092    8.3910    4.6887 O   0  0  0  0  0  0  0  0  0  0  0  0
   -6.2985    7.2767    6.8363 O   0  0  0  0  0  0  0  0  0  0  0  0
   -4.8782    6.8629    4.8672 O   0  5  0  0  0  0  0  0  0  0  0  0
   -6.8194    4.9082    4.0279 C   0  0  0  0  0  0  0  0  0  0  0  0
   -7.6679    3.8522    3.6859 C   0  0  0  0  0  0  0  0  0  0  0  0
   -9.5204    1.3590    4.2882 C   0  0  0  0  0  0  0  0  0  0  0  0
   -8.3467    1.0029    5.0787 C   0  0  0  0  0  0  0  0  0  0  0  0
   -8.3079   -0.3301    5.2307 C   0  0  0  0  0  0  0  0  0  0  0  0
   -9.4840   -0.9224    4.5870 C   0  0  0  0  0  0  0  0  0  0  0  0
  -10.1487    0.1568    4.0593 N   0  0  0  0  0  0  0  0  0  0  0  0
  -11.3903    4.2030    2.6814 C   0  0  0  0  0  0  0  0  0  0  0  0
  -12.5471    4.0513    2.0511 C   0  0  0  0  0  0  0  0  0  0  0  0
  -12.2898   -4.2692    3.0094 C   0  0  0  0  0  0  0  0  0  0  0  0
  -11.2220   -4.1784    3.7901 C   0  0  0  0  0  0  0  0  0  0  0  0
   -8.1145   -4.1013    4.3844 C   0  0  0  0  0  0  0  0  0  0  0  0
   -7.1925   -4.9737    4.9578 C   0  0  0  0  0  0  0  0  0  0  0  0
    2.3113   -4.9191    0.8032 C   0  0  0  0  0  0  0  0  0  0  0  0
    0.4713   -6.8884   -0.6310 C   0  0  0  0  0  0  0  0  0  0  0  0
    0.6042   -9.5134    1.5201 H   0  0  0  0  0  0  0  0  0  0  0  0
   -0.7440   -8.4099    1.3877 H   0  0  0  0  0  0  0  0  0  0  0  0
    0.7953   -7.8406    1.9873 H   0  0  0  0  0  0  0  0  0  0  0  0
    1.6115  -10.0404   -0.5111 H   0  0  0  0  0  0  0  0  0  0  0  0
    2.4476   -9.4075   -2.6986 H   0  0  0  0  0  0  0  0  0  0  0  0
    1.5930   -3.1504   -1.7710 H   0  0  0  0  0  0  0  0  0  0  0  0
    0.3168   -4.2844    0.2981 H   0  0  0  0  0  0  0  0  0  0  0  0
    1.3548   -1.7460    0.2191 H   0  0  0  0  0  0  0  0  0  0  0  0
    2.8708   -1.8968    2.1941 H   0  0  0  0  0  0  0  0  0  0  0  0
    4.0530   -4.1418    1.9174 H   0  0  0  0  0  0  0  0  0  0  0  0
    1.4580   -5.3890    4.6657 H   0  0  0  0  0  0  0  0  0  0  0  0
    0.3025   -3.7753    2.5427 H   0  0  0  0  0  0  0  0  0  0  0  0
   -0.0594   -3.5419    4.2601 H   0  0  0  0  0  0  0  0  0  0  0  0
   -0.6235   -6.0252    2.6986 H   0  0  0  0  0  0  0  0  0  0  0  0
   -1.7982   -4.7606    3.1627 H   0  0  0  0  0  0  0  0  0  0  0  0
   -0.3221   -6.5430    5.0380 H   0  0  0  0  0  0  0  0  0  0  0  0
   -2.0383   -6.6536    4.5549 H   0  0  0  0  0  0  0  0  0  0  0  0
   -0.7786   -4.4717    6.1417 H   0  0  0  0  0  0  0  0  0  0  0  0
   -1.9154   -5.7340    6.6988 H   0  0  0  0  0  0  0  0  0  0  0  0
   -2.5458   -3.5337    4.7949 H   0  0  0  0  0  0  0  0  0  0  0  0
   -3.0261   -3.6610    6.5100 H   0  0  0  0  0  0  0  0  0  0  0  0
   -3.8840   -5.5573    4.3794 H   0  0  0  0  0  0  0  0  0  0  0  0
   -4.8339   -4.1931    4.9730 H   0  0  0  0  0  0  0  0  0  0  0  0
   -3.9745   -6.4148    6.6566 H   0  0  0  0  0  0  0  0  0  0  0  0
   -7.4843   -4.0125    8.1611 H   0  0  0  0  0  0  0  0  0  0  0  0
   -9.1990   -2.5988    7.1818 H   0  0  0  0  0  0  0  0  0  0  0  0
  -15.3682   -4.5191    3.3820 H   0  0  0  0  0  0  0  0  0  0  0  0
  -16.6542   -6.4274    2.6038 H   0  0  0  0  0  0  0  0  0  0  0  0
  -15.6283   -5.5031   -1.3778 H   0  0  0  0  0  0  0  0  0  0  0  0
  -14.2646   -3.6522   -0.5933 H   0  0  0  0  0  0  0  0  0  0  0  0
  -16.2932   -1.7664    0.5979 H   0  0  0  0  0  0  0  0  0  0  0  0
  -16.2919    0.8052    0.1685 H   0  0  0  0  0  0  0  0  0  0  0  0
  -12.8727   -0.1612    2.2936 H   0  0  0  0  0  0  0  0  0  0  0  0
  -13.5862    3.6996   -0.8905 H   0  0  0  0  0  0  0  0  0  0  0  0
  -15.0542    5.3161   -1.9555 H   0  0  0  0  0  0  0  0  0  0  0  0
  -18.0215    4.5337    0.9335 H   0  0  0  0  0  0  0  0  0  0  0  0
  -16.5169    2.9932    2.0572 H   0  0  0  0  0  0  0  0  0  0  0  0
  -10.3125    4.6640    5.5921 H   0  0  0  0  0  0  0  0  0  0  0  0
   -8.8695    6.5442    6.1290 H   0  0  0  0  0  0  0  0  0  0  0  0
   -5.8690    4.9625    3.6294 H   0  0  0  0  0  0  0  0  0  0  0  0
   -7.3490    3.1394    3.0112 H   0  0  0  0  0  0  0  0  0  0  0  0
   -7.6569    1.6692    5.4598 H   0  0  0  0  0  0  0  0  0  0  0  0
   -7.5677   -0.8546    5.7226 H   0  0  0  0  0  0  0  0  0  0  0  0
  -10.9956    0.0777    3.5636 H   0  0  0  0  0  0  0  0  0  0  0  0
  -10.8467    5.0643    2.8479 H   0  0  0  0  0  0  0  0  0  0  0  0
  -13.1023    4.8284    1.6600 H   0  0  0  0  0  0  0  0  0  0  0  0
  -12.7177   -5.1585    2.7077 H   0  0  0  0  0  0  0  0  0  0  0  0
  -10.6914   -4.9303    4.2572 H   0  0  0  0  0  0  0  0  0  0  0  0
   -8.2672   -4.1144    3.3638 H   0  0  0  0  0  0  0  0  0  0  0  0
   -6.7163   -5.6799    4.3751 H   0  0  0  0  0  0  0  0  0  0  0  0
    3.0467   -5.2693    0.1093 H   0  0  0  0  0  0  0  0  0  0  0  0
    1.8024   -5.7691    1.2075 H   0  0  0  0  0  0  0  0  0  0  0  0
   -0.1935   -6.2621   -0.1505 H   0  0  0  0  0  0  0  0  0  0  0  0
  1  2  1  0  0  0  0
  1 89  1  0  0  0  0
  1 90  1  0  0  0  0
  1 91  1  0  0  0  0
  2  3  1  0  0  0  0
  2 88  2  0  0  0  0
  3  4  2  0  0  0  0
  3 92  1  0  0  0  0
  4  5  1  0  0  0  0
  4 93  1  0  0  0  0
  5  6  1  0  0  0  0
  5  7  2  0  0  0  0
  7  8  1  0  0  0  0
  7 88  1  0  0  0  0
  8  9  2  0  0  0  0
  8 10  1  0  0  0  0
 10 94  1  0  0  0  0
 11 12  1  0  0  0  0
 11 87  1  0  0  0  0
 11 10  1  0  0  0  0
 11 95  1  1  0  0  0
 12 13  2  0  0  0  0
 12 96  1  0  0  0  0
 13 14  1  0  0  0  0
 13 97  1  0  0  0  0
 14 15  1  0  0  0  0
 14 87  1  0  0  0  0
 14 98  1  6  0  0  0
 15 16  2  0  0  0  0
 15 17  1  0  0  0  0
 17 18  1  0  0  0  0
 17 99  1  0  0  0  0
 18 19  1  0  0  0  0
 18100  1  0  0  0  0
 18101  1  0  0  0  0
 19 20  1  0  0  0  0
 19102  1  0  0  0  0
 19103  1  0  0  0  0
 20 21  1  0  0  0  0
 20104  1  0  0  0  0
 20105  1  0  0  0  0
 21 22  1  0  0  0  0
 21106  1  0  0  0  0
 21107  1  0  0  0  0
 22 23  1  0  0  0  0
 22108  1  0  0  0  0
 22109  1  0  0  0  0
 23 24  1  0  0  0  0
 23110  1  0  0  0  0
 23111  1  0  0  0  0
 24 25  1  0  0  0  0
 24112  1  0  0  0  0
 25 26  2  0  0  0  0
 25 27  1  0  0  0  0
 27 28  1  0  0  0  0
 27 86  2  0  0  0  0
 28 29  2  0  0  0  0
 28113  1  0  0  0  0
 29 30  1  0  0  0  0
 29114  1  0  0  0  0
 30 31  1  0  0  0  0
 30 85  2  0  0  0  0
 31 32  1  0  0  0  0
 31 79  2  0  0  0  0
 32 33  2  0  0  0  0
 32 84  1  0  0  0  0
 33 34  1  0  0  0  0
 34 35  2  0  0  0  0
 34 83  1  0  0  0  0
 35 36  1  0  0  0  0
 35 46  1  0  0  0  0
 36 37  1  0  0  0  0
 36 45  2  0  0  0  0
 37 38  2  0  0  0  0
 37115  1  0  0  0  0
 38 39  1  0  0  0  0
 38116  1  0  0  0  0
 39 40  1  0  0  0  0
 39 44  2  0  0  0  0
 40 41  2  0  0  0  0
 40 42  2  0  0  0  0
 40 43  1  0  0  0  0
 44 45  1  0  0  0  0
 44117  1  0  0  0  0
 45118  1  0  0  0  0
 46 47  2  0  0  0  0
 46 50  1  0  0  0  0
 47 48  1  0  0  0  0
 47119  1  0  0  0  0
 48 49  2  0  0  0  0
 48120  1  0  0  0  0
 49 50  1  0  0  0  0
 49 51  1  0  0  0  0
 50121  1  0  0  0  0
 51 52  1  0  0  0  0
 51 62  2  0  0  0  0
 52 53  1  0  0  0  0
 52 61  2  0  0  0  0
 53 54  2  0  0  0  0
 53122  1  0  0  0  0
 54 55  1  0  0  0  0
 54123  1  0  0  0  0
 55 56  1  0  0  0  0
 55 60  2  0  0  0  0
 56 57  2  0  0  0  0
 56 58  2  0  0  0  0
 56 59  1  0  0  0  0
 60 61  1  0  0  0  0
 60124  1  0  0  0  0
 61125  1  0  0  0  0
 62 63  1  0  0  0  0
 62 82  1  0  0  0  0
 63 64  2  0  0  0  0
 64 65  1  0  0  0  0
 64 81  1  0  0  0  0
 65 66  1  0  0  0  0
 65 76  2  0  0  0  0
 66 67  1  0  0  0  0
 66 75  2  0  0  0  0
 67 68  2  0  0  0  0
 67126  1  0  0  0  0
 68 69  1  0  0  0  0
 68127  1  0  0  0  0
 69 70  1  0  0  0  0
 69 74  2  0  0  0  0
 70 71  2  0  0  0  0
 70 72  2  0  0  0  0
 70 73  1  0  0  0  0
 74 75  1  0  0  0  0
 74128  1  0  0  0  0
 75129  1  0  0  0  0
 76 77  1  0  0  0  0
 76 80  1  0  0  0  0
 77 78  2  0  0  0  0
 77130  1  0  0  0  0
 78 79  1  0  0  0  0
 78131  1  0  0  0  0
 79 80  1  0  0  0  0
 80132  1  0  0  0  0
 81 82  2  0  0  0  0
 81133  1  0  0  0  0
 82134  1  0  0  0  0
 83 84  2  0  0  0  0
 83135  1  0  0  0  0
 84136  1  0  0  0  0
 85 86  1  0  0  0  0
 85137  1  0  0  0  0
 86138  1  0  0  0  0
 87139  1  0  0  0  0
 87140  1  0  0  0  0
 88141  1  0  0  0  0
M  CHG  3  43  -1  59  -1  73  -1
M  END
$$$$
