3_0_5516
 OpenBabel04152301373D

143152  0  0  0  0  0  0  0  0999 V2000
    2.0993    0.6144   -0.4974 C   0  0  0  0  0  0  0  0  0  0  0  0
    1.1402    0.5434   -1.4350 C   0  0  0  0  0  0  0  0  0  0  0  0
   -0.2839    0.2904   -1.0459 C   0  0  0  0  0  0  0  0  0  0  0  0
   -1.3353    0.6350   -1.9875 N   0  3  1  0  0  0  0  0  0  0  0  0
   -2.4769   -0.2851   -1.8726 C   0  0  0  0  0  0  0  0  0  0  0  0
   -3.3006   -0.1932   -0.5648 C   0  0  0  0  0  0  0  0  0  0  0  0
   -3.9430    0.7866   -0.1964 O   0  0  0  0  0  0  0  0  0  0  0  0
   -3.4046   -1.2778    0.2443 N   0  0  0  0  0  0  0  0  0  0  0  0
   -2.3044   -2.1276    0.5874 C   0  0  0  0  0  0  0  0  0  0  0  0
   -1.4450   -1.4300    1.6416 C   0  0  0  0  0  0  0  0  0  0  0  0
   -2.0906   -1.2574    3.0180 C   0  0  0  0  0  0  0  0  0  0  0  0
   -2.7002   -2.5207    3.6147 C   0  0  0  0  0  0  0  0  0  0  0  0
   -1.8231   -3.7655    3.5049 C   0  0  0  0  0  0  0  0  0  0  0  0
   -0.3900   -3.5704    3.9725 C   0  0  0  0  0  0  0  0  0  0  0  0
   -0.3226   -3.3068    5.3933 N   0  0  0  0  0  0  0  0  0  0  0  0
    0.2368   -4.0963    6.3692 C   0  0  0  0  0  0  0  0  0  0  0  0
    0.0218   -3.8826    7.5472 O   0  0  0  0  0  0  0  0  0  0  0  0
    1.0831   -5.2312    5.9409 C   0  0  0  0  0  0  0  0  0  0  0  0
    0.8045   -6.5017    6.4410 C   0  0  0  0  0  0  0  0  0  0  0  0
    1.5205   -7.5959    5.9569 C   0  0  0  0  0  0  0  0  0  0  0  0
    2.4744   -7.4293    4.9375 C   0  0  0  0  0  0  0  0  0  0  0  0
    3.1885   -8.5968    4.3650 C   0  0  0  0  0  0  0  0  0  0  0  0
    4.6798   -8.7180    4.5181 C   0  0  0  0  0  0  0  0  0  0  0  0
    5.4783   -9.6542    4.0748 N   0  0  0  0  0  0  0  0  0  0  0  0
    6.7587   -9.2702    4.4555 C   0  0  0  0  0  0  0  0  0  0  0  0
    7.9272   -9.9332    4.2867 C   0  0  0  0  0  0  0  0  0  0  0  0
    9.1813   -9.2827    4.8111 C   0  0  0  0  0  0  0  0  0  0  0  0
    9.4079   -9.1426    6.1928 C   0  0  0  0  0  0  0  0  0  0  0  0
   10.5758   -8.5351    6.6614 C   0  0  0  0  0  0  0  0  0  0  0  0
   11.5396   -8.0962    5.7487 C   0  0  0  0  0  0  0  0  0  0  0  0
   13.0562   -7.3337    6.3874 S   0  0  0  0  0  0  0  0  0  0  0  0
   12.5641   -6.0475    6.8750 O   0  0  0  0  0  0  0  0  0  0  0  0
   13.4774   -8.2769    7.4200 O   0  0  0  0  0  0  0  0  0  0  0  0
   13.9290   -7.2630    5.2182 O   0  5  0  0  0  0  0  0  0  0  0  0
   11.3505   -8.2601    4.3752 C   0  0  0  0  0  0  0  0  0  0  0  0
   10.1669   -8.8404    3.9099 C   0  0  0  0  0  0  0  0  0  0  0  0
    8.0384  -11.2083    3.6296 C   0  0  0  0  0  0  0  0  0  0  0  0
    9.1653  -11.9935    3.4631 C   0  0  0  0  0  0  0  0  0  0  0  0
    8.8102  -13.1080    2.6966 C   0  0  0  0  0  0  0  0  0  0  0  0
    7.4487  -13.0516    2.4429 C   0  0  0  0  0  0  0  0  0  0  0  0
    6.9886  -11.8805    3.0211 N   0  0  0  0  0  0  0  0  0  0  0  0
    6.6323  -13.9937    1.7186 C   0  0  0  0  0  0  0  0  0  0  0  0
    7.3112  -15.2017    1.1292 C   0  0  0  0  0  0  0  0  0  0  0  0
    7.4742  -15.3358   -0.2611 C   0  0  0  0  0  0  0  0  0  0  0  0
    8.1310  -16.4491   -0.7909 C   0  0  0  0  0  0  0  0  0  0  0  0
    8.6560  -17.4165    0.0716 C   0  0  0  0  0  0  0  0  0  0  0  0
    9.5456  -18.8269   -0.6413 S   0  0  0  0  0  0  0  0  0  0  0  0
    8.4600  -19.6027   -1.2345 O   0  0  0  0  0  0  0  0  0  0  0  0
   10.4521  -18.1859   -1.5908 O   0  0  0  0  0  0  0  0  0  0  0  0
   10.1958  -19.4459    0.5115 O   0  5  0  0  0  0  0  0  0  0  0  0
    8.5283  -17.2863    1.4559 C   0  0  0  0  0  0  0  0  0  0  0  0
    7.8435  -16.1875    1.9804 C   0  0  0  0  0  0  0  0  0  0  0  0
    5.2917  -13.8860    1.5438 C   0  0  0  0  0  0  0  0  0  0  0  0
    4.4292  -12.8866    1.9797 N   0  0  0  0  0  0  0  0  0  0  0  0
    3.2407  -13.2229    1.5371 C   0  0  0  0  0  0  0  0  0  0  0  0
    1.9279  -12.5151    1.7290 C   0  0  0  0  0  0  0  0  0  0  0  0
    0.6683  -13.0587    1.1504 C   0  0  0  0  0  0  0  0  0  0  0  0
    0.0965  -14.2391    1.6560 C   0  0  0  0  0  0  0  0  0  0  0  0
   -1.0920  -14.7390    1.1146 C   0  0  0  0  0  0  0  0  0  0  0  0
   -1.7268  -14.0436    0.0814 C   0  0  0  0  0  0  0  0  0  0  0  0
   -3.2994  -14.6781   -0.5641 S   0  0  0  0  0  0  0  0  0  0  0  0
   -2.8683  -15.8540   -1.3129 O   0  0  0  0  0  0  0  0  0  0  0  0
   -4.0553  -14.9455    0.6570 O   0  0  0  0  0  0  0  0  0  0  0  0
   -3.8080  -13.5717   -1.3722 O   0  5  0  0  0  0  0  0  0  0  0  0
   -1.1830  -12.8615   -0.4232 C   0  0  0  0  0  0  0  0  0  0  0  0
    0.0205  -12.3816    0.1002 C   0  0  0  0  0  0  0  0  0  0  0  0
    1.9008  -11.3703    2.4387 C   0  0  0  0  0  0  0  0  0  0  0  0
    0.7058  -10.5803    2.7173 C   0  0  0  0  0  0  0  0  0  0  0  0
    1.0556   -9.4868    3.4130 C   0  0  0  0  0  0  0  0  0  0  0  0
    2.4982   -9.5215    3.6687 C   0  0  0  0  0  0  0  0  0  0  0  0
    2.9164  -10.6707    3.0468 N   0  0  0  0  0  0  0  0  0  0  0  0
    3.2157  -14.4672    0.7569 C   0  0  0  0  0  0  0  0  0  0  0  0
    4.4833  -14.8510    0.8260 C   0  0  0  0  0  0  0  0  0  0  0  0
    6.6379   -7.9904    5.1174 C   0  0  0  0  0  0  0  0  0  0  0  0
    5.3675   -7.6365    5.2431 C   0  0  0  0  0  0  0  0  0  0  0  0
    2.7501   -6.1415    4.4554 C   0  0  0  0  0  0  0  0  0  0  0  0
    2.0997   -5.0395    4.9980 C   0  0  0  0  0  0  0  0  0  0  0  0
   -1.6660    2.0669   -2.1671 C   0  0  0  0  0  0  0  0  0  0  0  0
   -2.3545    2.8286   -1.0243 C   0  0  0  0  0  0  0  0  0  0  0  0
   -1.7337    3.0725    0.0210 O   0  0  0  0  0  0  0  0  0  0  0  0
   -3.5817    3.4391   -1.1843 N   0  0  0  0  0  0  0  0  0  0  0  0
   -4.7226    3.2067   -1.9913 C   0  0  0  0  0  0  0  0  0  0  0  0
   -5.6903    4.2116   -2.0697 C   0  0  0  0  0  0  0  0  0  0  0  0
   -6.8974    4.0068   -2.7608 C   0  0  0  0  0  0  0  0  0  0  0  0
   -7.1818    2.7753   -3.3448 C   0  0  0  0  0  0  0  0  0  0  0  0
   -6.2542    1.7552   -3.2403 C   0  0  0  0  0  0  0  0  0  0  0  0
   -5.0383    1.9932   -2.5905 C   0  0  0  0  0  0  0  0  0  0  0  0
    3.0784    0.7890   -0.7730 H   0  0  0  0  0  0  0  0  0  0  0  0
    1.8571    0.4943    0.4986 H   0  0  0  0  0  0  0  0  0  0  0  0
    1.3861    0.6640   -2.4300 H   0  0  0  0  0  0  0  0  0  0  0  0
   -0.4691    0.8452   -0.1499 H   0  0  0  0  0  0  0  0  0  0  0  0
   -0.3462   -0.7747   -0.9647 H   0  0  0  0  0  0  0  0  0  0  0  0
   -0.9171    0.4768   -2.9043 H   0  0  0  0  0  0  0  0  0  0  0  0
   -2.1006   -1.2836   -1.9518 H   0  0  0  0  0  0  0  0  0  0  0  0
   -3.1504   -0.0046   -2.6553 H   0  0  0  0  0  0  0  0  0  0  0  0
   -4.2897   -1.4933    0.6178 H   0  0  0  0  0  0  0  0  0  0  0  0
   -1.7153   -2.3211   -0.2846 H   0  0  0  0  0  0  0  0  0  0  0  0
   -2.6716   -3.0542    0.9765 H   0  0  0  0  0  0  0  0  0  0  0  0
   -1.1960   -0.4575    1.2713 H   0  0  0  0  0  0  0  0  0  0  0  0
   -0.5988   -2.0666    1.7949 H   0  0  0  0  0  0  0  0  0  0  0  0
   -2.8664   -0.5258    2.9298 H   0  0  0  0  0  0  0  0  0  0  0  0
   -1.3018   -0.9681    3.6806 H   0  0  0  0  0  0  0  0  0  0  0  0
   -3.6223   -2.7170    3.1086 H   0  0  0  0  0  0  0  0  0  0  0  0
   -2.8260   -2.3309    4.6602 H   0  0  0  0  0  0  0  0  0  0  0  0
   -1.8015   -4.0696    2.4793 H   0  0  0  0  0  0  0  0  0  0  0  0
   -2.2563   -4.5007    4.1504 H   0  0  0  0  0  0  0  0  0  0  0  0
    0.0372   -2.7429    3.4455 H   0  0  0  0  0  0  0  0  0  0  0  0
    0.1515   -4.4717    3.7742 H   0  0  0  0  0  0  0  0  0  0  0  0
   -0.7253   -2.4614    5.6972 H   0  0  0  0  0  0  0  0  0  0  0  0
    0.0768   -6.6312    7.1612 H   0  0  0  0  0  0  0  0  0  0  0  0
    1.3490   -8.5347    6.3496 H   0  0  0  0  0  0  0  0  0  0  0  0
    8.7065   -9.4910    6.8649 H   0  0  0  0  0  0  0  0  0  0  0  0
   10.7259   -8.4112    7.6749 H   0  0  0  0  0  0  0  0  0  0  0  0
   12.0779   -7.9556    3.7095 H   0  0  0  0  0  0  0  0  0  0  0  0
   10.0145   -8.9455    2.8946 H   0  0  0  0  0  0  0  0  0  0  0  0
   10.1049  -11.7918    3.8393 H   0  0  0  0  0  0  0  0  0  0  0  0
    9.4535  -13.8478    2.3742 H   0  0  0  0  0  0  0  0  0  0  0  0
    6.0543  -11.5707    3.0030 H   0  0  0  0  0  0  0  0  0  0  0  0
    7.1066  -14.6078   -0.8935 H   0  0  0  0  0  0  0  0  0  0  0  0
    8.2282  -16.5569   -1.8126 H   0  0  0  0  0  0  0  0  0  0  0  0
    8.9359  -17.9951    2.0856 H   0  0  0  0  0  0  0  0  0  0  0  0
    7.7269  -16.0980    3.0019 H   0  0  0  0  0  0  0  0  0  0  0  0
    0.5569  -14.7401    2.4319 H   0  0  0  0  0  0  0  0  0  0  0  0
   -1.4981  -15.6163    1.4758 H   0  0  0  0  0  0  0  0  0  0  0  0
   -1.6654  -12.3464   -1.1762 H   0  0  0  0  0  0  0  0  0  0  0  0
    0.4388  -11.5215   -0.2874 H   0  0  0  0  0  0  0  0  0  0  0  0
   -0.2540  -10.8233    2.4262 H   0  0  0  0  0  0  0  0  0  0  0  0
    0.4115   -8.7408    3.7189 H   0  0  0  0  0  0  0  0  0  0  0  0
    3.8553  -10.9666    3.0369 H   0  0  0  0  0  0  0  0  0  0  0  0
    2.4214  -14.9226    0.2807 H   0  0  0  0  0  0  0  0  0  0  0  0
    4.8481  -15.7267    0.4197 H   0  0  0  0  0  0  0  0  0  0  0  0
    7.4364   -7.4267    5.4484 H   0  0  0  0  0  0  0  0  0  0  0  0
    4.9649   -6.8168    5.7237 H   0  0  0  0  0  0  0  0  0  0  0  0
    3.4372   -6.0119    3.6964 H   0  0  0  0  0  0  0  0  0  0  0  0
    2.3648   -4.0854    4.7074 H   0  0  0  0  0  0  0  0  0  0  0  0
   -2.3096    2.1341   -3.0193 H   0  0  0  0  0  0  0  0  0  0  0  0
   -0.7095    2.5398   -2.2467 H   0  0  0  0  0  0  0  0  0  0  0  0
   -3.6902    4.2226   -0.5981 H   0  0  0  0  0  0  0  0  0  0  0  0
   -5.5159    5.1201   -1.6123 H   0  0  0  0  0  0  0  0  0  0  0  0
   -7.5798    4.7773   -2.8360 H   0  0  0  0  0  0  0  0  0  0  0  0
   -8.0706    2.6262   -3.8476 H   0  0  0  0  0  0  0  0  0  0  0  0
   -6.4573    0.8251   -3.6387 H   0  0  0  0  0  0  0  0  0  0  0  0
   -4.3429    1.2315   -2.5544 H   0  0  0  0  0  0  0  0  0  0  0  0
  1  2  2  0  0  0  0
  1 88  1  0  0  0  0
  1 89  1  0  0  0  0
  2  3  1  0  0  0  0
  2 90  1  0  0  0  0
  3  4  1  0  0  0  0
  3 91  1  0  0  0  0
  3 92  1  0  0  0  0
  4  5  1  0  0  0  0
  4 78  1  0  0  0  0
  4 93  1  6  0  0  0
  5  6  1  0  0  0  0
  5 94  1  0  0  0  0
  5 95  1  0  0  0  0
  6  7  2  0  0  0  0
  6  8  1  0  0  0  0
  8  9  1  0  0  0  0
  8 96  1  0  0  0  0
  9 10  1  0  0  0  0
  9 97  1  0  0  0  0
  9 98  1  0  0  0  0
 10 11  1  0  0  0  0
 10 99  1  0  0  0  0
 10100  1  0  0  0  0
 11 12  1  0  0  0  0
 11101  1  0  0  0  0
 11102  1  0  0  0  0
 12 13  1  0  0  0  0
 12103  1  0  0  0  0
 12104  1  0  0  0  0
 13 14  1  0  0  0  0
 13105  1  0  0  0  0
 13106  1  0  0  0  0
 14 15  1  0  0  0  0
 14107  1  0  0  0  0
 14108  1  0  0  0  0
 15 16  1  0  0  0  0
 15109  1  0  0  0  0
 16 17  2  0  0  0  0
 16 18  1  0  0  0  0
 18 19  1  0  0  0  0
 18 77  2  0  0  0  0
 19 20  2  0  0  0  0
 19110  1  0  0  0  0
 20 21  1  0  0  0  0
 20111  1  0  0  0  0
 21 22  1  0  0  0  0
 21 76  2  0  0  0  0
 22 23  1  0  0  0  0
 22 70  2  0  0  0  0
 23 24  2  0  0  0  0
 23 75  1  0  0  0  0
 24 25  1  0  0  0  0
 25 26  2  0  0  0  0
 25 74  1  0  0  0  0
 26 27  1  0  0  0  0
 26 37  1  0  0  0  0
 27 28  1  0  0  0  0
 27 36  2  0  0  0  0
 28 29  2  0  0  0  0
 28112  1  0  0  0  0
 29 30  1  0  0  0  0
 29113  1  0  0  0  0
 30 31  1  0  0  0  0
 30 35  2  0  0  0  0
 31 32  2  0  0  0  0
 31 33  2  0  0  0  0
 31 34  1  0  0  0  0
 35 36  1  0  0  0  0
 35114  1  0  0  0  0
 36115  1  0  0  0  0
 37 38  2  0  0  0  0
 37 41  1  0  0  0  0
 38 39  1  0  0  0  0
 38116  1  0  0  0  0
 39 40  2  0  0  0  0
 39117  1  0  0  0  0
 40 41  1  0  0  0  0
 40 42  1  0  0  0  0
 41118  1  0  0  0  0
 42 43  1  0  0  0  0
 42 53  2  0  0  0  0
 43 44  1  0  0  0  0
 43 52  2  0  0  0  0
 44 45  2  0  0  0  0
 44119  1  0  0  0  0
 45 46  1  0  0  0  0
 45120  1  0  0  0  0
 46 47  1  0  0  0  0
 46 51  2  0  0  0  0
 47 48  2  0  0  0  0
 47 49  2  0  0  0  0
 47 50  1  0  0  0  0
 51 52  1  0  0  0  0
 51121  1  0  0  0  0
 52122  1  0  0  0  0
 53 54  1  0  0  0  0
 53 73  1  0  0  0  0
 54 55  2  0  0  0  0
 55 56  1  0  0  0  0
 55 72  1  0  0  0  0
 56 57  1  0  0  0  0
 56 67  2  0  0  0  0
 57 58  1  0  0  0  0
 57 66  2  0  0  0  0
 58 59  2  0  0  0  0
 58123  1  0  0  0  0
 59 60  1  0  0  0  0
 59124  1  0  0  0  0
 60 61  1  0  0  0  0
 60 65  2  0  0  0  0
 61 62  2  0  0  0  0
 61 63  2  0  0  0  0
 61 64  1  0  0  0  0
 65 66  1  0  0  0  0
 65125  1  0  0  0  0
 66126  1  0  0  0  0
 67 68  1  0  0  0  0
 67 71  1  0  0  0  0
 68 69  2  0  0  0  0
 68127  1  0  0  0  0
 69 70  1  0  0  0  0
 69128  1  0  0  0  0
 70 71  1  0  0  0  0
 71129  1  0  0  0  0
 72 73  2  0  0  0  0
 72130  1  0  0  0  0
 73131  1  0  0  0  0
 74 75  2  0  0  0  0
 74132  1  0  0  0  0
 75133  1  0  0  0  0
 76 77  1  0  0  0  0
 76134  1  0  0  0  0
 77135  1  0  0  0  0
 78 79  1  0  0  0  0
 78136  1  0  0  0  0
 78137  1  0  0  0  0
 79 80  2  0  0  0  0
 79 81  1  0  0  0  0
 81 82  1  0  0  0  0
 81138  1  0  0  0  0
 82 83  1  0  0  0  0
 82 87  2  0  0  0  0
 83 84  2  0  0  0  0
 83139  1  0  0  0  0
 84 85  1  0  0  0  0
 84140  1  0  0  0  0
 85 86  2  0  0  0  0
 85141  1  0  0  0  0
 86 87  1  0  0  0  0
 86142  1  0  0  0  0
 87143  1  0  0  0  0
M  CHG  4   4   1  34  -1  50  -1  64  -1
M  END
$$$$
