3_0_6488
 OpenBabel04152301373D

152163  0  0  0  0  0  0  0  0999 V2000
    1.1086   -0.2020    0.1173 C   0  0  0  0  0  0  0  0  0  0  0  0
    0.7419    1.1633    0.2853 O   0  0  0  0  0  0  0  0  0  0  0  0
    1.0102    1.6798    1.5249 C   0  0  0  0  0  0  0  0  0  0  0  0
    2.2684    1.5204    2.1214 C   0  0  0  0  0  0  0  0  0  0  0  0
    2.5805    2.1456    3.3468 C   0  0  0  0  0  0  0  0  0  0  0  0
    1.6202    2.9149    4.0300 C   0  0  0  0  0  0  0  0  0  0  0  0
    0.4083    3.1408    3.3547 C   0  0  0  0  0  0  0  0  0  0  0  0
    0.0745    2.5109    2.1414 C   0  0  0  0  0  0  0  0  0  0  0  0
   -1.1809    2.8436    1.7037 O   0  0  0  0  0  0  0  0  0  0  0  0
   -1.8142    1.9962    0.7548 C   0  0  0  0  0  0  0  0  0  0  0  0
    1.9780    3.5221    5.3690 C   0  0  0  0  0  0  0  0  0  0  0  0
    1.0971    3.8628    6.3431 C   0  0  0  0  0  0  0  0  0  0  0  0
   -0.3854    3.5879    6.1510 C   0  0  0  0  0  0  0  0  0  0  0  0
   -1.6153    3.3599    5.9916 N   0  0  0  0  0  0  0  0  0  0  0  0
    1.5204    4.5778    7.5920 C   0  0  0  0  0  0  0  0  0  0  0  0
    2.9288    4.4842    7.9656 N   0  3  1  0  0  0  0  0  0  0  0  0
    3.2337    3.5145    9.0243 C   0  0  0  0  0  0  0  0  0  0  0  0
    3.5419    2.0797    8.5871 C   0  0  0  0  0  0  0  0  0  0  0  0
    4.6548    1.7767    8.1427 O   0  0  0  0  0  0  0  0  0  0  0  0
    2.6378    1.0709    8.7671 N   0  0  0  0  0  0  0  0  0  0  0  0
    1.2123    1.1258    9.0466 C   0  0  0  0  0  0  0  0  0  0  0  0
    0.4235    1.0369    7.7445 C   0  0  0  0  0  0  0  0  0  0  0  0
   -0.1450   -0.3213    7.3422 C   0  0  0  0  0  0  0  0  0  0  0  0
   -1.5302   -0.6386    7.9188 C   0  0  0  0  0  0  0  0  0  0  0  0
   -2.6582    0.3571    7.6043 C   0  0  0  0  0  0  0  0  0  0  0  0
   -2.9333    0.6214    6.1235 C   0  0  0  0  0  0  0  0  0  0  0  0
   -3.5811   -0.4902    5.4486 N   0  0  0  0  0  0  0  0  0  0  0  0
   -4.8610   -0.6074    4.9626 C   0  0  0  0  0  0  0  0  0  0  0  0
   -5.2370   -1.6899    4.5132 O   0  0  0  0  0  0  0  0  0  0  0  0
   -5.8104    0.5312    5.0141 C   0  0  0  0  0  0  0  0  0  0  0  0
   -5.4571    1.8120    4.5834 C   0  0  0  0  0  0  0  0  0  0  0  0
   -6.3430    2.8775    4.7640 C   0  0  0  0  0  0  0  0  0  0  0  0
   -7.6318    2.6633    5.2810 C   0  0  0  0  0  0  0  0  0  0  0  0
   -8.5646    3.8074    5.4896 C   0  0  0  0  0  0  0  0  0  0  0  0
   -9.0213    4.1845    6.8770 C   0  0  0  0  0  0  0  0  0  0  0  0
   -9.8354    5.1428    7.2441 N   0  0  0  0  0  0  0  0  0  0  0  0
   -9.9305    5.0563    8.6291 C   0  0  0  0  0  0  0  0  0  0  0  0
  -10.6084    5.8587    9.4847 C   0  0  0  0  0  0  0  0  0  0  0  0
  -10.5324    5.5643   10.9639 C   0  0  0  0  0  0  0  0  0  0  0  0
  -11.6945    5.1885   11.6647 C   0  0  0  0  0  0  0  0  0  0  0  0
  -11.6838    5.0829   13.0588 C   0  0  0  0  0  0  0  0  0  0  0  0
  -10.4992    5.3278   13.7577 C   0  0  0  0  0  0  0  0  0  0  0  0
  -10.5126    5.2227   15.5692 S   0  0  0  0  0  0  0  0  0  0  0  0
  -11.2304    6.4367   15.9445 O   0  0  0  0  0  0  0  0  0  0  0  0
  -11.2218    3.9683   15.8108 O   0  0  0  0  0  0  0  0  0  0  0  0
   -9.0939    5.2015   15.9212 O   0  5  0  0  0  0  0  0  0  0  0  0
   -9.3237    5.6559   13.0780 C   0  0  0  0  0  0  0  0  0  0  0  0
   -9.3469    5.7919   11.6861 C   0  0  0  0  0  0  0  0  0  0  0  0
  -11.3968    6.9940    9.0752 C   0  0  0  0  0  0  0  0  0  0  0  0
  -12.0986    7.8790    9.8761 C   0  0  0  0  0  0  0  0  0  0  0  0
  -12.7716    8.7790    9.0484 C   0  0  0  0  0  0  0  0  0  0  0  0
  -12.4226    8.5115    7.7343 C   0  0  0  0  0  0  0  0  0  0  0  0
  -11.5866    7.4067    7.7648 N   0  0  0  0  0  0  0  0  0  0  0  0
  -12.8369    9.2122    6.5423 C   0  0  0  0  0  0  0  0  0  0  0  0
  -13.7846   10.3721    6.7234 C   0  0  0  0  0  0  0  0  0  0  0  0
  -13.3609   11.5182    7.4234 C   0  0  0  0  0  0  0  0  0  0  0  0
  -14.2742   12.5158    7.7741 C   0  0  0  0  0  0  0  0  0  0  0  0
  -15.6134   12.3838    7.3987 C   0  0  0  0  0  0  0  0  0  0  0  0
  -16.7942   13.6622    7.9111 S   0  0  0  0  0  0  0  0  0  0  0  0
  -16.9543   13.3809    9.3347 O   0  0  0  0  0  0  0  0  0  0  0  0
  -16.0869   14.8996    7.5894 O   0  0  0  0  0  0  0  0  0  0  0  0
  -17.9705   13.3943    7.0863 O   0  5  0  0  0  0  0  0  0  0  0  0
  -16.0425   11.2815    6.6551 C   0  0  0  0  0  0  0  0  0  0  0  0
  -15.1320   10.2693    6.3351 C   0  0  0  0  0  0  0  0  0  0  0  0
  -12.4353    8.8970    5.2866 C   0  0  0  0  0  0  0  0  0  0  0  0
  -11.5833    7.8776    4.8763 N   0  0  0  0  0  0  0  0  0  0  0  0
  -11.5233    7.9638    3.5690 C   0  0  0  0  0  0  0  0  0  0  0  0
  -10.7309    7.1232    2.6066 C   0  0  0  0  0  0  0  0  0  0  0  0
  -10.7213    7.4089    1.1432 C   0  0  0  0  0  0  0  0  0  0  0  0
  -11.2522    6.4765    0.2309 C   0  0  0  0  0  0  0  0  0  0  0  0
  -11.0924    6.6568   -1.1452 C   0  0  0  0  0  0  0  0  0  0  0  0
  -10.4330    7.7937   -1.6172 C   0  0  0  0  0  0  0  0  0  0  0  0
  -10.1722    7.9685   -3.4041 S   0  0  0  0  0  0  0  0  0  0  0  0
   -9.1115    6.9946   -3.6486 O   0  0  0  0  0  0  0  0  0  0  0  0
  -11.4811    7.6239   -3.9527 O   0  0  0  0  0  0  0  0  0  0  0  0
   -9.7836    9.3679   -3.5590 O   0  5  0  0  0  0  0  0  0  0  0  0
   -9.9641    8.7671   -0.7321 C   0  0  0  0  0  0  0  0  0  0  0  0
  -10.0945    8.5650    0.6464 C   0  0  0  0  0  0  0  0  0  0  0  0
   -9.9891    6.0999    3.0789 C   0  0  0  0  0  0  0  0  0  0  0  0
   -9.1611    5.2182    2.2595 C   0  0  0  0  0  0  0  0  0  0  0  0
   -8.6093    4.2780    3.0406 C   0  0  0  0  0  0  0  0  0  0  0  0
   -8.9902    4.5270    4.4315 C   0  0  0  0  0  0  0  0  0  0  0  0
   -9.8186    5.6215    4.3577 N   0  0  0  0  0  0  0  0  0  0  0  0
  -12.3448    9.0412    2.9991 C   0  0  0  0  0  0  0  0  0  0  0  0
  -12.8503    9.6018    4.0915 C   0  0  0  0  0  0  0  0  0  0  0  0
   -9.1268    3.9248    9.0356 C   0  0  0  0  0  0  0  0  0  0  0  0
   -8.5025    3.3830    7.9978 C   0  0  0  0  0  0  0  0  0  0  0  0
   -8.0184    1.3517    5.5971 C   0  0  0  0  0  0  0  0  0  0  0  0
   -7.1071    0.2953    5.4843 C   0  0  0  0  0  0  0  0  0  0  0  0
    3.7921    4.4404    6.7880 C   0  0  0  0  0  0  0  0  0  0  0  0
    3.3453    3.6951    5.6147 N   0  0  0  0  0  0  0  0  0  0  0  0
    4.3545    3.3510    4.6128 C   0  0  0  0  0  0  0  0  0  0  0  0
    3.9735    2.0370    3.9209 C   0  0  0  0  0  0  0  0  0  0  0  0
    0.8633   -0.5177   -0.8752 H   0  0  0  0  0  0  0  0  0  0  0  0
    0.5770   -0.8037    0.8246 H   0  0  0  0  0  0  0  0  0  0  0  0
    2.1611   -0.3108    0.2763 H   0  0  0  0  0  0  0  0  0  0  0  0
    2.9794    0.9350    1.6557 H   0  0  0  0  0  0  0  0  0  0  0  0
   -0.2692    3.8002    3.7685 H   0  0  0  0  0  0  0  0  0  0  0  0
   -2.7806    2.3883    0.5154 H   0  0  0  0  0  0  0  0  0  0  0  0
   -1.9198    1.0147    1.1676 H   0  0  0  0  0  0  0  0  0  0  0  0
   -1.2191    1.9475   -0.1331 H   0  0  0  0  0  0  0  0  0  0  0  0
    0.9448    4.1808    8.4019 H   0  0  0  0  0  0  0  0  0  0  0  0
    1.3561    5.6151    7.3870 H   0  0  0  0  0  0  0  0  0  0  0  0
    3.1599    5.3570    8.4402 H   0  0  0  0  0  0  0  0  0  0  0  0
    2.3894    3.4774    9.6805 H   0  0  0  0  0  0  0  0  0  0  0  0
    4.1388    3.8683    9.4720 H   0  0  0  0  0  0  0  0  0  0  0  0
    3.0112    0.1627    8.6962 H   0  0  0  0  0  0  0  0  0  0  0  0
    0.9825    2.0480    9.5382 H   0  0  0  0  0  0  0  0  0  0  0  0
    0.9453    0.3033    9.6767 H   0  0  0  0  0  0  0  0  0  0  0  0
    1.0733    1.3559    6.9565 H   0  0  0  0  0  0  0  0  0  0  0  0
   -0.4385    1.6483    7.9120 H   0  0  0  0  0  0  0  0  0  0  0  0
    0.5347   -1.0778    7.6750 H   0  0  0  0  0  0  0  0  0  0  0  0
   -0.2618   -0.2944    6.2789 H   0  0  0  0  0  0  0  0  0  0  0  0
   -1.4331   -0.6917    8.9831 H   0  0  0  0  0  0  0  0  0  0  0  0
   -1.8257   -1.5531    7.4485 H   0  0  0  0  0  0  0  0  0  0  0  0
   -2.4056    1.2912    8.0610 H   0  0  0  0  0  0  0  0  0  0  0  0
   -3.5512   -0.0928    7.9852 H   0  0  0  0  0  0  0  0  0  0  0  0
   -2.0016    0.8178    5.6354 H   0  0  0  0  0  0  0  0  0  0  0  0
   -3.6018    1.4552    6.0708 H   0  0  0  0  0  0  0  0  0  0  0  0
   -3.0138   -1.2844    5.3191 H   0  0  0  0  0  0  0  0  0  0  0  0
   -4.5427    1.9713    4.1322 H   0  0  0  0  0  0  0  0  0  0  0  0
   -6.0468    3.8341    4.5144 H   0  0  0  0  0  0  0  0  0  0  0  0
  -12.5629    4.9890   11.1440 H   0  0  0  0  0  0  0  0  0  0  0  0
  -12.5442    4.8261   13.5675 H   0  0  0  0  0  0  0  0  0  0  0  0
   -8.4442    5.7970   13.5992 H   0  0  0  0  0  0  0  0  0  0  0  0
   -8.4864    6.0617   11.1844 H   0  0  0  0  0  0  0  0  0  0  0  0
  -12.1203    7.8740   10.9079 H   0  0  0  0  0  0  0  0  0  0  0  0
  -13.4195    9.5185    9.3620 H   0  0  0  0  0  0  0  0  0  0  0  0
  -11.1868    6.9783    6.9737 H   0  0  0  0  0  0  0  0  0  0  0  0
  -12.3667   11.6223    7.6797 H   0  0  0  0  0  0  0  0  0  0  0  0
  -13.9621   13.3433    8.3060 H   0  0  0  0  0  0  0  0  0  0  0  0
  -17.0243   11.2147    6.3442 H   0  0  0  0  0  0  0  0  0  0  0  0
  -15.4516    9.4405    5.8099 H   0  0  0  0  0  0  0  0  0  0  0  0
  -11.7642    5.6522    0.5823 H   0  0  0  0  0  0  0  0  0  0  0  0
  -11.4587    5.9554   -1.8077 H   0  0  0  0  0  0  0  0  0  0  0  0
   -9.5248    9.6288   -1.0920 H   0  0  0  0  0  0  0  0  0  0  0  0
   -9.7274    9.2706    1.3039 H   0  0  0  0  0  0  0  0  0  0  0  0
   -9.0227    5.3051    1.2405 H   0  0  0  0  0  0  0  0  0  0  0  0
   -8.0117    3.5029    2.7132 H   0  0  0  0  0  0  0  0  0  0  0  0
  -10.2493    6.0251    5.1456 H   0  0  0  0  0  0  0  0  0  0  0  0
  -12.4905    9.2953    2.0095 H   0  0  0  0  0  0  0  0  0  0  0  0
  -13.4610   10.4337    4.0892 H   0  0  0  0  0  0  0  0  0  0  0  0
   -9.0490    3.5833   10.0064 H   0  0  0  0  0  0  0  0  0  0  0  0
   -7.8280    2.6021    7.9806 H   0  0  0  0  0  0  0  0  0  0  0  0
   -8.9822    1.1647    5.9152 H   0  0  0  0  0  0  0  0  0  0  0  0
   -7.3924   -0.6606    5.7487 H   0  0  0  0  0  0  0  0  0  0  0  0
    4.7230    4.0124    7.0965 H   0  0  0  0  0  0  0  0  0  0  0  0
    3.8232    5.4560    6.4525 H   0  0  0  0  0  0  0  0  0  0  0  0
    5.3052    3.2380    5.0906 H   0  0  0  0  0  0  0  0  0  0  0  0
    4.4079    4.1317    3.8830 H   0  0  0  0  0  0  0  0  0  0  0  0
    4.6681    1.8366    3.1320 H   0  0  0  0  0  0  0  0  0  0  0  0
    3.9998    1.2411    4.6356 H   0  0  0  0  0  0  0  0  0  0  0  0
  1  2  1  0  0  0  0
  1 94  1  0  0  0  0
  1 95  1  0  0  0  0
  1 96  1  0  0  0  0
  2  3  1  0  0  0  0
  3  4  1  0  0  0  0
  3  8  2  0  0  0  0
  4  5  2  0  0  0  0
  4 97  1  0  0  0  0
  5  6  1  0  0  0  0
  5 93  1  0  0  0  0
  6  7  2  0  0  0  0
  6 11  1  0  0  0  0
  7  8  1  0  0  0  0
  7 98  1  0  0  0  0
  8  9  1  0  0  0  0
  9 10  1  0  0  0  0
 10 99  1  0  0  0  0
 10100  1  0  0  0  0
 10101  1  0  0  0  0
 11 12  2  0  0  0  0
 11 91  1  0  0  0  0
 12 13  1  0  0  0  0
 12 15  1  0  0  0  0
 13 14  3  0  0  0  0
 15 16  1  0  0  0  0
 15102  1  0  0  0  0
 15103  1  0  0  0  0
 16 17  1  0  0  0  0
 16 90  1  0  0  0  0
 16104  1  1  0  0  0
 17 18  1  0  0  0  0
 17105  1  0  0  0  0
 17106  1  0  0  0  0
 18 19  2  0  0  0  0
 18 20  1  0  0  0  0
 20 21  1  0  0  0  0
 20107  1  0  0  0  0
 21 22  1  0  0  0  0
 21108  1  0  0  0  0
 21109  1  0  0  0  0
 22 23  1  0  0  0  0
 22110  1  0  0  0  0
 22111  1  0  0  0  0
 23 24  1  0  0  0  0
 23112  1  0  0  0  0
 23113  1  0  0  0  0
 24 25  1  0  0  0  0
 24114  1  0  0  0  0
 24115  1  0  0  0  0
 25 26  1  0  0  0  0
 25116  1  0  0  0  0
 25117  1  0  0  0  0
 26 27  1  0  0  0  0
 26118  1  0  0  0  0
 26119  1  0  0  0  0
 27 28  1  0  0  0  0
 27120  1  0  0  0  0
 28 29  2  0  0  0  0
 28 30  1  0  0  0  0
 30 31  1  0  0  0  0
 30 89  2  0  0  0  0
 31 32  2  0  0  0  0
 31121  1  0  0  0  0
 32 33  1  0  0  0  0
 32122  1  0  0  0  0
 33 34  1  0  0  0  0
 33 88  2  0  0  0  0
 34 35  1  0  0  0  0
 34 82  2  0  0  0  0
 35 36  2  0  0  0  0
 35 87  1  0  0  0  0
 36 37  1  0  0  0  0
 37 38  2  0  0  0  0
 37 86  1  0  0  0  0
 38 39  1  0  0  0  0
 38 49  1  0  0  0  0
 39 40  1  0  0  0  0
 39 48  2  0  0  0  0
 40 41  2  0  0  0  0
 40123  1  0  0  0  0
 41 42  1  0  0  0  0
 41124  1  0  0  0  0
 42 43  1  0  0  0  0
 42 47  2  0  0  0  0
 43 44  2  0  0  0  0
 43 45  2  0  0  0  0
 43 46  1  0  0  0  0
 47 48  1  0  0  0  0
 47125  1  0  0  0  0
 48126  1  0  0  0  0
 49 50  2  0  0  0  0
 49 53  1  0  0  0  0
 50 51  1  0  0  0  0
 50127  1  0  0  0  0
 51 52  2  0  0  0  0
 51128  1  0  0  0  0
 52 53  1  0  0  0  0
 52 54  1  0  0  0  0
 53129  1  0  0  0  0
 54 55  1  0  0  0  0
 54 65  2  0  0  0  0
 55 56  1  0  0  0  0
 55 64  2  0  0  0  0
 56 57  2  0  0  0  0
 56130  1  0  0  0  0
 57 58  1  0  0  0  0
 57131  1  0  0  0  0
 58 59  1  0  0  0  0
 58 63  2  0  0  0  0
 59 60  2  0  0  0  0
 59 61  2  0  0  0  0
 59 62  1  0  0  0  0
 63 64  1  0  0  0  0
 63132  1  0  0  0  0
 64133  1  0  0  0  0
 65 66  1  0  0  0  0
 65 85  1  0  0  0  0
 66 67  2  0  0  0  0
 67 68  1  0  0  0  0
 67 84  1  0  0  0  0
 68 69  1  0  0  0  0
 68 79  2  0  0  0  0
 69 70  1  0  0  0  0
 69 78  2  0  0  0  0
 70 71  2  0  0  0  0
 70134  1  0  0  0  0
 71 72  1  0  0  0  0
 71135  1  0  0  0  0
 72 73  1  0  0  0  0
 72 77  2  0  0  0  0
 73 74  2  0  0  0  0
 73 75  2  0  0  0  0
 73 76  1  0  0  0  0
 77 78  1  0  0  0  0
 77136  1  0  0  0  0
 78137  1  0  0  0  0
 79 80  1  0  0  0  0
 79 83  1  0  0  0  0
 80 81  2  0  0  0  0
 80138  1  0  0  0  0
 81 82  1  0  0  0  0
 81139  1  0  0  0  0
 82 83  1  0  0  0  0
 83140  1  0  0  0  0
 84 85  2  0  0  0  0
 84141  1  0  0  0  0
 85142  1  0  0  0  0
 86 87  2  0  0  0  0
 86143  1  0  0  0  0
 87144  1  0  0  0  0
 88 89  1  0  0  0  0
 88145  1  0  0  0  0
 89146  1  0  0  0  0
 90 91  1  0  0  0  0
 90147  1  0  0  0  0
 90148  1  0  0  0  0
 91 92  1  0  0  0  0
 92 93  1  0  0  0  0
 92149  1  0  0  0  0
 92150  1  0  0  0  0
 93151  1  0  0  0  0
 93152  1  0  0  0  0
M  CHG  4  16   1  46  -1  62  -1  76  -1
M  END
$$$$
