3_1_3097
 OpenBabel04152301373D

141151  0  0  1  0  0  0  0  0999 V2000
    1.6541    0.7144    0.1060 C   0  0  0  0  0  0  0  0  0  0  0  0
    0.6281    1.5256    0.9235 C   0  0  0  0  0  0  0  0  0  0  0  0
    0.8691    2.9983    0.4617 C   0  0  0  0  0  0  0  0  0  0  0  0
   -0.8559    1.2480    0.5418 C   0  0  0  0  0  0  0  0  0  0  0  0
   -1.6174    0.1324    1.2221 C   0  0  0  0  0  0  0  0  0  0  0  0
   -2.3538    0.3802    2.1776 O   0  0  0  0  0  0  0  0  0  0  0  0
   -1.5297   -1.1426    0.7706 N   0  0  0  0  0  0  0  0  0  0  0  0
   -0.8362   -1.6589   -0.3890 C   0  0  0  0  0  0  0  0  0  0  0  0
    0.4731   -2.3317   -0.0082 C   0  0  0  0  0  0  0  0  0  0  0  0
    0.3098   -3.6032    0.7901 C   0  0  0  0  0  0  0  0  0  0  0  0
   -0.3634   -4.7281    0.0510 C   0  0  0  0  0  0  0  0  0  0  0  0
    0.3949   -5.1477   -1.1161 N   0  0  0  0  0  0  0  0  0  0  0  0
    0.7963   -6.4125   -1.4610 C   0  0  0  0  0  0  0  0  0  0  0  0
    1.6033   -6.5737   -2.3746 O   0  0  0  0  0  0  0  0  0  0  0  0
    0.2649   -7.5684   -0.7101 C   0  0  0  0  0  0  0  0  0  0  0  0
    1.1036   -8.6464   -0.4269 C   0  0  0  0  0  0  0  0  0  0  0  0
    0.6080   -9.7212    0.3104 C   0  0  0  0  0  0  0  0  0  0  0  0
   -0.6962   -9.6822    0.8314 C   0  0  0  0  0  0  0  0  0  0  0  0
   -1.2867  -10.8453    1.5314 C   0  0  0  0  0  0  0  0  0  0  0  0
   -2.5052  -11.5135    0.9431 C   0  0  0  0  0  0  0  0  0  0  0  0
   -3.1922  -12.5269    1.4015 N   0  0  0  0  0  0  0  0  0  0  0  0
   -4.2502  -12.6953    0.5144 C   0  0  0  0  0  0  0  0  0  0  0  0
   -5.1883  -13.6696    0.4874 C   0  0  0  0  0  0  0  0  0  0  0  0
   -6.2180  -13.6175   -0.6119 C   0  0  0  0  0  0  0  0  0  0  0  0
   -5.8608  -13.8190   -1.9590 C   0  0  0  0  0  0  0  0  0  0  0  0
   -6.8240  -13.7428   -2.9681 C   0  0  0  0  0  0  0  0  0  0  0  0
   -8.1589  -13.5051   -2.6296 C   0  0  0  0  0  0  0  0  0  0  0  0
   -9.3922  -13.4418   -3.9576 S   0  0  0  0  0  0  0  0  0  0  0  0
   -9.0676  -12.1757   -4.6104 O   0  0  0  0  0  0  0  0  0  0  0  0
   -9.0892  -14.6427   -4.7318 O   0  0  0  0  0  0  0  0  0  0  0  0
  -10.6687  -13.4665   -3.2479 O   0  5  0  0  0  0  0  0  0  0  0  0
   -8.5406  -13.3424   -1.2963 C   0  0  0  0  0  0  0  0  0  0  0  0
   -7.5677  -13.3841   -0.2932 C   0  0  0  0  0  0  0  0  0  0  0  0
   -5.2444  -14.7387    1.4444 C   0  0  0  0  0  0  0  0  0  0  0  0
   -6.1140  -15.8123    1.4861 C   0  0  0  0  0  0  0  0  0  0  0  0
   -5.8169  -16.5647    2.6265 C   0  0  0  0  0  0  0  0  0  0  0  0
   -4.7161  -16.0000    3.2530 C   0  0  0  0  0  0  0  0  0  0  0  0
   -4.3863  -14.8708    2.5264 N   0  0  0  0  0  0  0  0  0  0  0  0
   -4.0156  -16.4669    4.4228 C   0  0  0  0  0  0  0  0  0  0  0  0
   -4.4600  -17.7751    5.0201 C   0  0  0  0  0  0  0  0  0  0  0  0
   -5.0889  -17.8369    6.2755 C   0  0  0  0  0  0  0  0  0  0  0  0
   -5.4864  -19.0677    6.8032 C   0  0  0  0  0  0  0  0  0  0  0  0
   -5.2916  -20.2350    6.0574 C   0  0  0  0  0  0  0  0  0  0  0  0
   -5.8364  -21.8168    6.7549 S   0  0  0  0  0  0  0  0  0  0  0  0
   -4.8403  -22.0472    7.7975 O   0  0  0  0  0  0  0  0  0  0  0  0
   -7.1838  -21.5103    7.2289 O   0  0  0  0  0  0  0  0  0  0  0  0
   -5.7752  -22.7359    5.6206 O   0  5  0  0  0  0  0  0  0  0  0  0
   -4.7096  -20.1869    4.7899 C   0  0  0  0  0  0  0  0  0  0  0  0
   -4.2811  -18.9600    4.2818 C   0  0  0  0  0  0  0  0  0  0  0  0
   -2.9587  -15.8448    5.0031 C   0  0  0  0  0  0  0  0  0  0  0  0
   -2.3140  -14.6713    4.6277 N   0  0  0  0  0  0  0  0  0  0  0  0
   -1.3587  -14.4903    5.5100 C   0  0  0  0  0  0  0  0  0  0  0  0
   -0.3145  -13.4079    5.5659 C   0  0  0  0  0  0  0  0  0  0  0  0
    0.7016  -13.3692    6.6532 C   0  0  0  0  0  0  0  0  0  0  0  0
    1.6960  -14.3597    6.7421 C   0  0  0  0  0  0  0  0  0  0  0  0
    2.6400  -14.3271    7.7731 C   0  0  0  0  0  0  0  0  0  0  0  0
    2.6112  -13.2835    8.7022 C   0  0  0  0  0  0  0  0  0  0  0  0
    3.8709  -13.2388   10.0071 S   0  0  0  0  0  0  0  0  0  0  0  0
    3.4559  -14.3418   10.8678 O   0  0  0  0  0  0  0  0  0  0  0  0
    5.1071  -13.4492    9.2580 O   0  0  0  0  0  0  0  0  0  0  0  0
    3.7196  -11.9039   10.5823 O   0  5  0  0  0  0  0  0  0  0  0  0
    1.6491  -12.2760    8.6146 C   0  0  0  0  0  0  0  0  0  0  0  0
    0.6880  -12.3299    7.6014 C   0  0  0  0  0  0  0  0  0  0  0  0
   -0.2904  -12.4828    4.5879 C   0  0  0  0  0  0  0  0  0  0  0  0
    0.6746  -11.3943    4.4728 C   0  0  0  0  0  0  0  0  0  0  0  0
    0.3894  -10.6711    3.3777 C   0  0  0  0  0  0  0  0  0  0  0  0
   -0.7566  -11.2739    2.6917 C   0  0  0  0  0  0  0  0  0  0  0  0
   -1.1093  -12.3259    3.4955 N   0  0  0  0  0  0  0  0  0  0  0  0
   -1.3133  -15.5066    6.5683 C   0  0  0  0  0  0  0  0  0  0  0  0
   -2.2750  -16.3341    6.1838 C   0  0  0  0  0  0  0  0  0  0  0  0
   -4.1660  -11.6352   -0.4601 C   0  0  0  0  0  0  0  0  0  0  0  0
   -3.0483  -10.9456   -0.3056 C   0  0  0  0  0  0  0  0  0  0  0  0
   -1.5026   -8.5662    0.5887 C   0  0  0  0  0  0  0  0  0  0  0  0
   -1.0621   -7.5758   -0.2709 C   0  0  0  0  0  0  0  0  0  0  0  0
    0.9649    1.4496    2.4441 C   0  0  0  0  0  0  0  0  0  0  0  0
    0.5622    0.2471    3.2502 C   0  0  0  0  0  0  0  0  0  0  0  0
    0.9527   -1.0162    3.2477 N   0  0  0  0  0  0  0  0  0  0  0  0
    0.2586   -1.5520    4.3347 C   0  0  0  0  0  0  0  0  0  0  0  0
    0.3134   -2.9963    4.8291 C   0  0  1  0  0  0  0  0  0  0  0  0
    1.2116   -3.9203    3.9896 C   0  0  0  0  0  0  0  0  0  0  0  0
    0.7334   -3.0842    6.3080 C   0  0  0  0  0  0  0  0  0  0  0  0
    0.0375   -4.3355    6.7945 C   0  0  0  0  0  0  0  0  0  0  0  0
   -1.2575   -4.3113    6.0166 C   0  0  0  0  0  0  0  0  0  0  0  0
   -1.0119   -3.6116    4.7887 O   0  0  0  0  0  0  0  0  0  0  0  0
   -0.4830   -0.6443    4.9905 N   0  0  0  0  0  0  0  0  0  0  0  0
   -0.2868    0.5292    4.2839 O   0  0  0  0  0  0  0  0  0  0  0  0
    1.4102    0.7759   -0.9340 H   0  0  0  0  0  0  0  0  0  0  0  0
    1.6300   -0.3088    0.4181 H   0  0  0  0  0  0  0  0  0  0  0  0
    2.6338    1.1133    0.2668 H   0  0  0  0  0  0  0  0  0  0  0  0
    0.6465    3.0860   -0.5812 H   0  0  0  0  0  0  0  0  0  0  0  0
    1.8920    3.2625    0.6316 H   0  0  0  0  0  0  0  0  0  0  0  0
    0.2339    3.6551    1.0184 H   0  0  0  0  0  0  0  0  0  0  0  0
   -0.8704    1.0366   -0.5070 H   0  0  0  0  0  0  0  0  0  0  0  0
   -1.3635    2.1294    0.8740 H   0  0  0  0  0  0  0  0  0  0  0  0
   -2.0068   -1.8141    1.3097 H   0  0  0  0  0  0  0  0  0  0  0  0
   -0.6286   -0.8497   -1.0576 H   0  0  0  0  0  0  0  0  0  0  0  0
   -1.4636   -2.3899   -0.8547 H   0  0  0  0  0  0  0  0  0  0  0  0
    1.0472   -1.6418    0.5743 H   0  0  0  0  0  0  0  0  0  0  0  0
    0.9547   -2.6047   -0.9238 H   0  0  0  0  0  0  0  0  0  0  0  0
   -0.2736   -3.3788    1.6585 H   0  0  0  0  0  0  0  0  0  0  0  0
    1.2975   -3.9429    1.0225 H   0  0  0  0  0  0  0  0  0  0  0  0
   -1.3318   -4.4016   -0.2660 H   0  0  0  0  0  0  0  0  0  0  0  0
   -0.4333   -5.5635    0.7159 H   0  0  0  0  0  0  0  0  0  0  0  0
    0.6537   -4.4310   -1.7395 H   0  0  0  0  0  0  0  0  0  0  0  0
    2.0805   -8.6485   -0.7595 H   0  0  0  0  0  0  0  0  0  0  0  0
    1.2019  -10.5491    0.4741 H   0  0  0  0  0  0  0  0  0  0  0  0
   -4.8794  -14.0247   -2.2029 H   0  0  0  0  0  0  0  0  0  0  0  0
   -6.5517  -13.8612   -3.9565 H   0  0  0  0  0  0  0  0  0  0  0  0
   -9.5324  -13.1927   -1.0535 H   0  0  0  0  0  0  0  0  0  0  0  0
   -7.8428  -13.2421    0.6913 H   0  0  0  0  0  0  0  0  0  0  0  0
   -6.8528  -16.0217    0.7966 H   0  0  0  0  0  0  0  0  0  0  0  0
   -6.3306  -17.4000    2.9480 H   0  0  0  0  0  0  0  0  0  0  0  0
   -3.6518  -14.2525    2.7445 H   0  0  0  0  0  0  0  0  0  0  0  0
   -5.2576  -16.9700    6.8093 H   0  0  0  0  0  0  0  0  0  0  0  0
   -5.9213  -19.1155    7.7379 H   0  0  0  0  0  0  0  0  0  0  0  0
   -4.5974  -21.0494    4.2344 H   0  0  0  0  0  0  0  0  0  0  0  0
   -3.8284  -18.9210    3.3552 H   0  0  0  0  0  0  0  0  0  0  0  0
    1.7292  -15.1163    6.0411 H   0  0  0  0  0  0  0  0  0  0  0  0
    3.3535  -15.0690    7.8475 H   0  0  0  0  0  0  0  0  0  0  0  0
    1.6475  -11.4978    9.2924 H   0  0  0  0  0  0  0  0  0  0  0  0
   -0.0393  -11.5997    7.5482 H   0  0  0  0  0  0  0  0  0  0  0  0
    1.4509  -11.2100    5.1273 H   0  0  0  0  0  0  0  0  0  0  0  0
    0.8959   -9.8266    3.0689 H   0  0  0  0  0  0  0  0  0  0  0  0
   -1.8766  -12.9137    3.3083 H   0  0  0  0  0  0  0  0  0  0  0  0
   -0.6960  -15.5622    7.3934 H   0  0  0  0  0  0  0  0  0  0  0  0
   -2.5079  -17.2167    6.6652 H   0  0  0  0  0  0  0  0  0  0  0  0
   -4.8802  -11.4414   -1.1794 H   0  0  0  0  0  0  0  0  0  0  0  0
   -2.6568  -10.2018   -0.9043 H   0  0  0  0  0  0  0  0  0  0  0  0
   -2.4225   -8.4816    1.0488 H   0  0  0  0  0  0  0  0  0  0  0  0
   -1.7141   -6.8415   -0.5883 H   0  0  0  0  0  0  0  0  0  0  0  0
    0.5021    2.2975    2.9044 H   0  0  0  0  0  0  0  0  0  0  0  0
    2.0338    1.4019    2.4541 H   0  0  0  0  0  0  0  0  0  0  0  0
    2.2079   -3.5304    3.9730 H   0  0  0  0  0  0  0  0  0  0  0  0
    0.8330   -3.9741    2.9903 H   0  0  0  0  0  0  0  0  0  0  0  0
    1.2189   -4.8993    4.4214 H   0  0  0  0  0  0  0  0  0  0  0  0
    0.4014   -2.2249    6.8523 H   0  0  0  0  0  0  0  0  0  0  0  0
    1.7947   -3.1175    6.4402 H   0  0  0  0  0  0  0  0  0  0  0  0
   -0.1433   -4.2928    7.8483 H   0  0  0  0  0  0  0  0  0  0  0  0
    0.6090   -5.2276    6.6448 H   0  0  0  0  0  0  0  0  0  0  0  0
   -2.0127   -3.8048    6.5806 H   0  0  0  0  0  0  0  0  0  0  0  0
   -1.5973   -5.3068    5.8207 H   0  0  0  0  0  0  0  0  0  0  0  0
  1  2  1  0  0  0  0
  1 87  1  0  0  0  0
  1 88  1  0  0  0  0
  1 89  1  0  0  0  0
  2  3  1  0  0  0  0
  2  4  1  0  0  0  0
  2 75  1  0  0  0  0
  3 90  1  0  0  0  0
  3 91  1  0  0  0  0
  3 92  1  0  0  0  0
  4  5  1  0  0  0  0
  4 93  1  0  0  0  0
  4 94  1  0  0  0  0
  5  6  2  0  0  0  0
  5  7  1  0  0  0  0
  7  8  1  0  0  0  0
  7 95  1  0  0  0  0
  8  9  1  0  0  0  0
  8 96  1  0  0  0  0
  8 97  1  0  0  0  0
  9 10  1  0  0  0  0
  9 98  1  0  0  0  0
  9 99  1  0  0  0  0
 10 11  1  0  0  0  0
 10100  1  0  0  0  0
 10101  1  0  0  0  0
 11 12  1  0  0  0  0
 11102  1  0  0  0  0
 11103  1  0  0  0  0
 12 13  1  0  0  0  0
 12104  1  0  0  0  0
 13 14  2  0  0  0  0
 13 15  1  0  0  0  0
 15 16  1  0  0  0  0
 15 74  2  0  0  0  0
 16 17  2  0  0  0  0
 16105  1  0  0  0  0
 17 18  1  0  0  0  0
 17106  1  0  0  0  0
 18 19  1  0  0  0  0
 18 73  2  0  0  0  0
 19 20  1  0  0  0  0
 19 67  2  0  0  0  0
 20 21  2  0  0  0  0
 20 72  1  0  0  0  0
 21 22  1  0  0  0  0
 22 23  2  0  0  0  0
 22 71  1  0  0  0  0
 23 24  1  0  0  0  0
 23 34  1  0  0  0  0
 24 25  1  0  0  0  0
 24 33  2  0  0  0  0
 25 26  2  0  0  0  0
 25107  1  0  0  0  0
 26 27  1  0  0  0  0
 26108  1  0  0  0  0
 27 28  1  0  0  0  0
 27 32  2  0  0  0  0
 28 29  2  0  0  0  0
 28 30  2  0  0  0  0
 28 31  1  0  0  0  0
 32 33  1  0  0  0  0
 32109  1  0  0  0  0
 33110  1  0  0  0  0
 34 35  2  0  0  0  0
 34 38  1  0  0  0  0
 35 36  1  0  0  0  0
 35111  1  0  0  0  0
 36 37  2  0  0  0  0
 36112  1  0  0  0  0
 37 38  1  0  0  0  0
 37 39  1  0  0  0  0
 38113  1  0  0  0  0
 39 40  1  0  0  0  0
 39 50  2  0  0  0  0
 40 41  1  0  0  0  0
 40 49  2  0  0  0  0
 41 42  2  0  0  0  0
 41114  1  0  0  0  0
 42 43  1  0  0  0  0
 42115  1  0  0  0  0
 43 44  1  0  0  0  0
 43 48  2  0  0  0  0
 44 45  2  0  0  0  0
 44 46  2  0  0  0  0
 44 47  1  0  0  0  0
 48 49  1  0  0  0  0
 48116  1  0  0  0  0
 49117  1  0  0  0  0
 50 51  1  0  0  0  0
 50 70  1  0  0  0  0
 51 52  2  0  0  0  0
 52 53  1  0  0  0  0
 52 69  1  0  0  0  0
 53 54  1  0  0  0  0
 53 64  2  0  0  0  0
 54 55  1  0  0  0  0
 54 63  2  0  0  0  0
 55 56  2  0  0  0  0
 55118  1  0  0  0  0
 56 57  1  0  0  0  0
 56119  1  0  0  0  0
 57 58  1  0  0  0  0
 57 62  2  0  0  0  0
 58 59  2  0  0  0  0
 58 60  2  0  0  0  0
 58 61  1  0  0  0  0
 62 63  1  0  0  0  0
 62120  1  0  0  0  0
 63121  1  0  0  0  0
 64 65  1  0  0  0  0
 64 68  1  0  0  0  0
 65 66  2  0  0  0  0
 65122  1  0  0  0  0
 66 67  1  0  0  0  0
 66123  1  0  0  0  0
 67 68  1  0  0  0  0
 68124  1  0  0  0  0
 69 70  2  0  0  0  0
 69125  1  0  0  0  0
 70126  1  0  0  0  0
 71 72  2  0  0  0  0
 71127  1  0  0  0  0
 72128  1  0  0  0  0
 73 74  1  0  0  0  0
 73129  1  0  0  0  0
 74130  1  0  0  0  0
 75 76  1  0  0  0  0
 75131  1  0  0  0  0
 75132  1  0  0  0  0
 76 77  2  0  0  0  0
 76 86  1  0  0  0  0
 77 78  1  0  0  0  0
 78 79  1  0  0  0  0
 78 85  2  0  0  0  0
 79 80  1  6  0  0  0
 79 81  1  0  0  0  0
 79 84  1  0  0  0  0
 80133  1  0  0  0  0
 80134  1  0  0  0  0
 80135  1  0  0  0  0
 81 82  1  0  0  0  0
 81136  1  0  0  0  0
 81137  1  0  0  0  0
 82 83  1  0  0  0  0
 82138  1  0  0  0  0
 82139  1  0  0  0  0
 83 84  1  0  0  0  0
 83140  1  0  0  0  0
 83141  1  0  0  0  0
 85 86  1  0  0  0  0
M  CHG  3  31  -1  47  -1  61  -1
M  END
$$$$
