3_1_1677
 OpenBabel04152301373D

159170  0  0  1  0  0  0  0  0999 V2000
    1.5519   -0.4127    0.3215 C   0  0  0  0  0  0  0  0  0  0  0  0
    0.3734   -1.4123    0.4286 C   0  0  0  0  0  0  0  0  0  0  0  0
   -0.8530   -0.6181   -0.0057 C   0  0  0  0  0  0  0  0  0  0  0  0
    0.6725   -2.6545   -0.4584 C   0  0  2  0  0  0  0  0  0  0  0  0
    0.7267   -2.6189   -2.0110 C   0  0  0  0  0  0  0  0  0  0  0  0
    1.8559   -2.7993   -2.4963 O   0  0  0  0  0  0  0  0  0  0  0  0
   -0.3642   -2.4764   -2.8639 N   0  0  0  0  0  0  0  0  0  0  0  0
   -1.7718   -2.5695   -2.4764 C   0  0  0  0  0  0  0  0  0  0  0  0
   -2.6737   -1.3802   -2.7490 C   0  0  0  0  0  0  0  0  0  0  0  0
   -2.1993   -0.0705   -2.8908 C   0  0  0  0  0  0  0  0  0  0  0  0
   -3.0659    1.0227   -2.9282 C   0  0  0  0  0  0  0  0  0  0  0  0
   -4.4372    0.8210   -2.8412 C   0  0  0  0  0  0  0  0  0  0  0  0
   -4.9380   -0.4738   -2.7327 C   0  0  0  0  0  0  0  0  0  0  0  0
   -4.0645   -1.5647   -2.6837 C   0  0  0  0  0  0  0  0  0  0  0  0
   -0.0981   -2.6082   -4.3160 C   0  0  0  0  0  0  0  0  0  0  0  0
    0.5808   -1.4175   -4.9605 C   0  0  0  0  0  0  0  0  0  0  0  0
    1.9722   -1.3925   -5.1342 C   0  0  0  0  0  0  0  0  0  0  0  0
    2.6117   -0.2576   -5.6363 C   0  0  0  0  0  0  0  0  0  0  0  0
    1.8683    0.8718   -5.9668 C   0  0  0  0  0  0  0  0  0  0  0  0
    0.4818    0.8447   -5.8504 C   0  0  0  0  0  0  0  0  0  0  0  0
   -0.1571   -0.3059   -5.3854 C   0  0  0  0  0  0  0  0  0  0  0  0
   -0.0445   -3.8448    0.1694 C   0  0  0  0  0  0  0  0  0  0  0  0
   -0.2694   -3.4933    1.6435 C   0  0  0  0  0  0  0  0  0  0  0  0
    0.1724   -2.0272    1.8784 C   0  0  2  0  0  0  0  0  0  0  0  0
   -0.9871   -1.3630    2.6849 C   0  0  0  0  0  0  0  0  0  0  0  0
    1.4144   -1.8167    2.7894 C   0  0  0  0  0  0  0  0  0  0  0  0
    1.4639   -0.8456    3.5577 O   0  0  0  0  0  0  0  0  0  0  0  0
    2.5433   -2.5567    2.7647 N   0  0  0  0  0  0  0  0  0  0  0  0
    2.9131   -3.7986    2.1285 C   0  0  0  0  0  0  0  0  0  0  0  0
    4.2502   -3.7068    1.4035 C   0  0  0  0  0  0  0  0  0  0  0  0
    5.4542   -3.4309    2.3019 C   0  0  0  0  0  0  0  0  0  0  0  0
    5.5544   -4.3087    3.5432 C   0  0  0  0  0  0  0  0  0  0  0  0
    5.5188   -5.7328    3.2431 N   0  0  0  0  0  0  0  0  0  0  0  0
    6.3458   -6.7359    3.6949 C   0  0  0  0  0  0  0  0  0  0  0  0
    6.2372   -7.8704    3.2582 O   0  0  0  0  0  0  0  0  0  0  0  0
    7.3919   -6.4058    4.6850 C   0  0  0  0  0  0  0  0  0  0  0  0
    8.7076   -6.7936    4.4266 C   0  0  0  0  0  0  0  0  0  0  0  0
    9.7272   -6.3669    5.2785 C   0  0  0  0  0  0  0  0  0  0  0  0
    9.4395   -5.5160    6.3590 C   0  0  0  0  0  0  0  0  0  0  0  0
   10.5216   -4.9673    7.2144 C   0  0  0  0  0  0  0  0  0  0  0  0
   10.5724   -5.3079    8.6784 C   0  0  0  0  0  0  0  0  0  0  0  0
   11.4102   -4.8914    9.5925 N   0  0  0  0  0  0  0  0  0  0  0  0
   10.9832   -5.4639   10.7847 C   0  0  0  0  0  0  0  0  0  0  0  0
   11.5508   -5.3919   12.0123 C   0  0  0  0  0  0  0  0  0  0  0  0
   10.8661   -6.1271   13.1349 C   0  0  0  0  0  0  0  0  0  0  0  0
   10.8377   -7.5336   13.1729 C   0  0  0  0  0  0  0  0  0  0  0  0
   10.1665   -8.2014   14.2002 C   0  0  0  0  0  0  0  0  0  0  0  0
    9.5511   -7.4636   15.2154 C   0  0  0  0  0  0  0  0  0  0  0  0
    8.6912   -8.3563   16.5395 S   0  0  0  0  0  0  0  0  0  0  0  0
    7.4837   -8.8153   15.8570 O   0  0  0  0  0  0  0  0  0  0  0  0
    9.6468   -9.4023   16.8948 O   0  0  0  0  0  0  0  0  0  0  0  0
    8.4782   -7.3370   17.5639 O   0  5  0  0  0  0  0  0  0  0  0  0
    9.6099   -6.0684   15.2219 C   0  0  0  0  0  0  0  0  0  0  0  0
   10.2561   -5.4036   14.1754 C   0  0  0  0  0  0  0  0  0  0  0  0
   12.7526   -4.6558   12.3002 C   0  0  0  0  0  0  0  0  0  0  0  0
   13.4449   -4.5724   13.4953 C   0  0  0  0  0  0  0  0  0  0  0  0
   14.5218   -3.6976   13.3150 C   0  0  0  0  0  0  0  0  0  0  0  0
   14.5337   -3.2822   11.9927 C   0  0  0  0  0  0  0  0  0  0  0  0
   13.4390   -3.8726   11.3841 N   0  0  0  0  0  0  0  0  0  0  0  0
   15.4747   -2.4094   11.3359 C   0  0  0  0  0  0  0  0  0  0  0  0
   16.6207   -1.8739   12.1520 C   0  0  0  0  0  0  0  0  0  0  0  0
   16.6769   -0.5209   12.5300 C   0  0  0  0  0  0  0  0  0  0  0  0
   17.7397   -0.0483   13.3046 C   0  0  0  0  0  0  0  0  0  0  0  0
   18.7344   -0.9355   13.7279 C   0  0  0  0  0  0  0  0  0  0  0  0
   20.0818   -0.3063   14.7664 S   0  0  0  0  0  0  0  0  0  0  0  0
   20.8883    0.4351   13.8009 O   0  0  0  0  0  0  0  0  0  0  0  0
   19.3745    0.5081   15.7518 O   0  0  0  0  0  0  0  0  0  0  0  0
   20.7032   -1.5169   15.2988 O   0  5  0  0  0  0  0  0  0  0  0  0
   18.6784   -2.2885   13.3880 C   0  0  0  0  0  0  0  0  0  0  0  0
   17.6295   -2.7515   12.5901 C   0  0  0  0  0  0  0  0  0  0  0  0
   15.4229   -2.0551   10.0278 C   0  0  0  0  0  0  0  0  0  0  0  0
   14.4976   -2.4230    9.0575 N   0  0  0  0  0  0  0  0  0  0  0  0
   14.8711   -1.8119    7.9583 C   0  0  0  0  0  0  0  0  0  0  0  0
   14.2525   -1.8713    6.5891 C   0  0  0  0  0  0  0  0  0  0  0  0
   14.8269   -1.1012    5.4521 C   0  0  0  0  0  0  0  0  0  0  0  0
   16.0543   -1.4817    4.8817 C   0  0  0  0  0  0  0  0  0  0  0  0
   16.5842   -0.7710    3.8006 C   0  0  0  0  0  0  0  0  0  0  0  0
   15.8751    0.3109    3.2712 C   0  0  0  0  0  0  0  0  0  0  0  0
   16.5503    1.1760    1.8259 S   0  0  0  0  0  0  0  0  0  0  0  0
   17.6538    1.9304    2.4113 O   0  0  0  0  0  0  0  0  0  0  0  0
   16.9327    0.0726    0.9481 O   0  0  0  0  0  0  0  0  0  0  0  0
   15.4246    1.9776    1.3510 O   0  5  0  0  0  0  0  0  0  0  0  0
   14.6482    0.6954    3.8154 C   0  0  0  0  0  0  0  0  0  0  0  0
   14.1345   -0.0014    4.9131 C   0  0  0  0  0  0  0  0  0  0  0  0
   13.1755   -2.6557    6.3901 C   0  0  0  0  0  0  0  0  0  0  0  0
   12.4811   -2.8256    5.1179 C   0  0  0  0  0  0  0  0  0  0  0  0
   11.4398   -3.6548    5.2939 C   0  0  0  0  0  0  0  0  0  0  0  0
   11.4165   -4.1077    6.6875 C   0  0  0  0  0  0  0  0  0  0  0  0
   12.4775   -3.4556    7.2641 N   0  0  0  0  0  0  0  0  0  0  0  0
   16.0638   -0.9680    8.1109 C   0  0  0  0  0  0  0  0  0  0  0  0
   16.3822   -1.1828    9.3805 C   0  0  0  0  0  0  0  0  0  0  0  0
    9.7817   -6.2123   10.4879 C   0  0  0  0  0  0  0  0  0  0  0  0
    9.5278   -6.2115    9.1881 C   0  0  0  0  0  0  0  0  0  0  0  0
    8.1057   -5.1707    6.6249 C   0  0  0  0  0  0  0  0  0  0  0  0
    7.0800   -5.6631    5.8264 C   0  0  0  0  0  0  0  0  0  0  0  0
    1.6188   -0.0464   -0.6816 H   0  0  0  0  0  0  0  0  0  0  0  0
    2.4641   -0.9075    0.5821 H   0  0  0  0  0  0  0  0  0  0  0  0
    1.3868    0.4063    0.9900 H   0  0  0  0  0  0  0  0  0  0  0  0
   -0.6897   -0.2163   -0.9839 H   0  0  0  0  0  0  0  0  0  0  0  0
   -1.0228    0.1816    0.6846 H   0  0  0  0  0  0  0  0  0  0  0  0
   -1.7073   -1.2621   -0.0227 H   0  0  0  0  0  0  0  0  0  0  0  0
    1.7398   -2.7241   -0.4293 H   0  0  0  0  0  0  0  0  0  0  0  0
   -1.7987   -2.7523   -1.4225 H   0  0  0  0  0  0  0  0  0  0  0  0
   -2.1655   -3.3469   -3.0973 H   0  0  0  0  0  0  0  0  0  0  0  0
   -1.1830    0.0905   -2.9697 H   0  0  0  0  0  0  0  0  0  0  0  0
   -2.6886    1.9788   -3.0203 H   0  0  0  0  0  0  0  0  0  0  0  0
   -5.0819    1.6267   -2.8569 H   0  0  0  0  0  0  0  0  0  0  0  0
   -5.9573   -0.6288   -2.6883 H   0  0  0  0  0  0  0  0  0  0  0  0
   -4.4474   -2.5192   -2.5983 H   0  0  0  0  0  0  0  0  0  0  0  0
   -1.0341   -2.7628   -4.8109 H   0  0  0  0  0  0  0  0  0  0  0  0
    0.5819   -3.4279   -4.4189 H   0  0  0  0  0  0  0  0  0  0  0  0
    2.5310   -2.2243   -4.8875 H   0  0  0  0  0  0  0  0  0  0  0  0
    3.6360   -0.2560   -5.7625 H   0  0  0  0  0  0  0  0  0  0  0  0
    2.3436    1.7262   -6.2970 H   0  0  0  0  0  0  0  0  0  0  0  0
   -0.0740    1.6753   -6.1079 H   0  0  0  0  0  0  0  0  0  0  0  0
   -1.1881   -0.3378   -5.3543 H   0  0  0  0  0  0  0  0  0  0  0  0
    0.5592   -4.7244    0.0877 H   0  0  0  0  0  0  0  0  0  0  0  0
   -0.9723   -4.0413   -0.3261 H   0  0  0  0  0  0  0  0  0  0  0  0
    0.3095   -4.1471    2.2618 H   0  0  0  0  0  0  0  0  0  0  0  0
   -1.3043   -3.6060    1.8910 H   0  0  0  0  0  0  0  0  0  0  0  0
   -1.9012   -1.4546    2.1363 H   0  0  0  0  0  0  0  0  0  0  0  0
   -0.7663   -0.3276    2.8398 H   0  0  0  0  0  0  0  0  0  0  0  0
   -1.0887   -1.8515    3.6314 H   0  0  0  0  0  0  0  0  0  0  0  0
    3.2730   -2.1639    3.2962 H   0  0  0  0  0  0  0  0  0  0  0  0
    2.1555   -4.0600    1.4195 H   0  0  0  0  0  0  0  0  0  0  0  0
    3.0082   -4.5404    2.8937 H   0  0  0  0  0  0  0  0  0  0  0  0
    4.1845   -2.9169    0.6847 H   0  0  0  0  0  0  0  0  0  0  0  0
    4.4188   -4.6679    0.9644 H   0  0  0  0  0  0  0  0  0  0  0  0
    5.4015   -2.4111    2.6214 H   0  0  0  0  0  0  0  0  0  0  0  0
    6.3199   -3.6511    1.7128 H   0  0  0  0  0  0  0  0  0  0  0  0
    4.7346   -4.0770    4.1906 H   0  0  0  0  0  0  0  0  0  0  0  0
    6.4992   -4.1040    4.0019 H   0  0  0  0  0  0  0  0  0  0  0  0
    4.8026   -6.0184    2.6310 H   0  0  0  0  0  0  0  0  0  0  0  0
    8.9244   -7.3904    3.6130 H   0  0  0  0  0  0  0  0  0  0  0  0
   10.6974   -6.6779    5.1141 H   0  0  0  0  0  0  0  0  0  0  0  0
   11.3162   -8.0757   12.4365 H   0  0  0  0  0  0  0  0  0  0  0  0
   10.1253   -9.2325   14.2094 H   0  0  0  0  0  0  0  0  0  0  0  0
    9.1802   -5.5328   15.9923 H   0  0  0  0  0  0  0  0  0  0  0  0
   10.2858   -4.3721   14.1663 H   0  0  0  0  0  0  0  0  0  0  0  0
   13.2080   -5.0693   14.3682 H   0  0  0  0  0  0  0  0  0  0  0  0
   15.1938   -3.4101   14.0435 H   0  0  0  0  0  0  0  0  0  0  0  0
   13.1853   -3.7539   10.4403 H   0  0  0  0  0  0  0  0  0  0  0  0
   15.9296    0.1264   12.2340 H   0  0  0  0  0  0  0  0  0  0  0  0
   17.7902    0.9496   13.5628 H   0  0  0  0  0  0  0  0  0  0  0  0
   19.4050   -2.9403   13.7230 H   0  0  0  0  0  0  0  0  0  0  0  0
   17.5941   -3.7467   12.3194 H   0  0  0  0  0  0  0  0  0  0  0  0
   16.5677   -2.2913    5.2637 H   0  0  0  0  0  0  0  0  0  0  0  0
   17.4935   -1.0436    3.3959 H   0  0  0  0  0  0  0  0  0  0  0  0
   14.1249    1.4874    3.4107 H   0  0  0  0  0  0  0  0  0  0  0  0
   13.2388    0.2938    5.3321 H   0  0  0  0  0  0  0  0  0  0  0  0
   12.7476   -2.3799    4.2261 H   0  0  0  0  0  0  0  0  0  0  0  0
   10.7637   -3.9294    4.5642 H   0  0  0  0  0  0  0  0  0  0  0  0
   12.7165   -3.5515    8.2143 H   0  0  0  0  0  0  0  0  0  0  0  0
   16.5307   -0.3667    7.4142 H   0  0  0  0  0  0  0  0  0  0  0  0
   17.2089   -0.7795    9.8484 H   0  0  0  0  0  0  0  0  0  0  0  0
    9.1986   -6.6850   11.1962 H   0  0  0  0  0  0  0  0  0  0  0  0
    8.7906   -6.7131    8.6685 H   0  0  0  0  0  0  0  0  0  0  0  0
    7.8851   -4.5478    7.4176 H   0  0  0  0  0  0  0  0  0  0  0  0
    6.0950   -5.4813    6.0750 H   0  0  0  0  0  0  0  0  0  0  0  0
  1  2  1  0  0  0  0
  1 96  1  0  0  0  0
  1 97  1  0  0  0  0
  1 98  1  0  0  0  0
  2  3  1  0  0  0  0
  2  4  1  0  0  0  0
  2 24  1  0  0  0  0
  3 99  1  0  0  0  0
  3100  1  0  0  0  0
  3101  1  0  0  0  0
  4  5  1  0  0  0  0
  4 22  1  0  0  0  0
  4102  1  1  0  0  0
  5  6  2  0  0  0  0
  5  7  1  0  0  0  0
  7  8  1  0  0  0  0
  7 15  1  0  0  0  0
  8  9  1  0  0  0  0
  8103  1  0  0  0  0
  8104  1  0  0  0  0
  9 10  1  0  0  0  0
  9 14  2  0  0  0  0
 10 11  2  0  0  0  0
 10105  1  0  0  0  0
 11 12  1  0  0  0  0
 11106  1  0  0  0  0
 12 13  2  0  0  0  0
 12107  1  0  0  0  0
 13 14  1  0  0  0  0
 13108  1  0  0  0  0
 14109  1  0  0  0  0
 15 16  1  0  0  0  0
 15110  1  0  0  0  0
 15111  1  0  0  0  0
 16 17  1  0  0  0  0
 16 21  2  0  0  0  0
 17 18  2  0  0  0  0
 17112  1  0  0  0  0
 18 19  1  0  0  0  0
 18113  1  0  0  0  0
 19 20  2  0  0  0  0
 19114  1  0  0  0  0
 20 21  1  0  0  0  0
 20115  1  0  0  0  0
 21116  1  0  0  0  0
 22 23  1  0  0  0  0
 22117  1  0  0  0  0
 22118  1  0  0  0  0
 23 24  1  0  0  0  0
 23119  1  0  0  0  0
 23120  1  0  0  0  0
 24 26  1  1  0  0  0
 24 25  1  0  0  0  0
 25121  1  0  0  0  0
 25122  1  0  0  0  0
 25123  1  0  0  0  0
 26 27  2  0  0  0  0
 26 28  1  0  0  0  0
 28 29  1  0  0  0  0
 28124  1  0  0  0  0
 29 30  1  0  0  0  0
 29125  1  0  0  0  0
 29126  1  0  0  0  0
 30 31  1  0  0  0  0
 30127  1  0  0  0  0
 30128  1  0  0  0  0
 31 32  1  0  0  0  0
 31129  1  0  0  0  0
 31130  1  0  0  0  0
 32 33  1  0  0  0  0
 32131  1  0  0  0  0
 32132  1  0  0  0  0
 33 34  1  0  0  0  0
 33133  1  0  0  0  0
 34 35  2  0  0  0  0
 34 36  1  0  0  0  0
 36 37  1  0  0  0  0
 36 95  2  0  0  0  0
 37 38  2  0  0  0  0
 37134  1  0  0  0  0
 38 39  1  0  0  0  0
 38135  1  0  0  0  0
 39 40  1  0  0  0  0
 39 94  2  0  0  0  0
 40 41  1  0  0  0  0
 40 88  2  0  0  0  0
 41 42  2  0  0  0  0
 41 93  1  0  0  0  0
 42 43  1  0  0  0  0
 43 44  2  0  0  0  0
 43 92  1  0  0  0  0
 44 45  1  0  0  0  0
 44 55  1  0  0  0  0
 45 46  1  0  0  0  0
 45 54  2  0  0  0  0
 46 47  2  0  0  0  0
 46136  1  0  0  0  0
 47 48  1  0  0  0  0
 47137  1  0  0  0  0
 48 49  1  0  0  0  0
 48 53  2  0  0  0  0
 49 50  2  0  0  0  0
 49 51  2  0  0  0  0
 49 52  1  0  0  0  0
 53 54  1  0  0  0  0
 53138  1  0  0  0  0
 54139  1  0  0  0  0
 55 56  2  0  0  0  0
 55 59  1  0  0  0  0
 56 57  1  0  0  0  0
 56140  1  0  0  0  0
 57 58  2  0  0  0  0
 57141  1  0  0  0  0
 58 59  1  0  0  0  0
 58 60  1  0  0  0  0
 59142  1  0  0  0  0
 60 61  1  0  0  0  0
 60 71  2  0  0  0  0
 61 62  1  0  0  0  0
 61 70  2  0  0  0  0
 62 63  2  0  0  0  0
 62143  1  0  0  0  0
 63 64  1  0  0  0  0
 63144  1  0  0  0  0
 64 65  1  0  0  0  0
 64 69  2  0  0  0  0
 65 66  2  0  0  0  0
 65 67  2  0  0  0  0
 65 68  1  0  0  0  0
 69 70  1  0  0  0  0
 69145  1  0  0  0  0
 70146  1  0  0  0  0
 71 72  1  0  0  0  0
 71 91  1  0  0  0  0
 72 73  2  0  0  0  0
 73 74  1  0  0  0  0
 73 90  1  0  0  0  0
 74 75  1  0  0  0  0
 74 85  2  0  0  0  0
 75 76  1  0  0  0  0
 75 84  2  0  0  0  0
 76 77  2  0  0  0  0
 76147  1  0  0  0  0
 77 78  1  0  0  0  0
 77148  1  0  0  0  0
 78 79  1  0  0  0  0
 78 83  2  0  0  0  0
 79 80  2  0  0  0  0
 79 81  2  0  0  0  0
 79 82  1  0  0  0  0
 83 84  1  0  0  0  0
 83149  1  0  0  0  0
 84150  1  0  0  0  0
 85 86  1  0  0  0  0
 85 89  1  0  0  0  0
 86 87  2  0  0  0  0
 86151  1  0  0  0  0
 87 88  1  0  0  0  0
 87152  1  0  0  0  0
 88 89  1  0  0  0  0
 89153  1  0  0  0  0
 90 91  2  0  0  0  0
 90154  1  0  0  0  0
 91155  1  0  0  0  0
 92 93  2  0  0  0  0
 92156  1  0  0  0  0
 93157  1  0  0  0  0
 94 95  1  0  0  0  0
 94158  1  0  0  0  0
 95159  1  0  0  0  0
M  CHG  3  52  -1  68  -1  82  -1
M  END
$$$$
