3_1_4215
 OpenBabel04152301373D

138149  0  0  1  0  0  0  0  0999 V2000
    1.5742   -1.0604   -0.0330 C   0  0  0  0  0  0  0  0  0  0  0  0
    0.5113   -0.2122    0.6282 C   0  0  1  0  0  0  0  0  0  0  0  0
   -0.0784    1.0415   -0.0523 C   0  0  1  0  0  0  0  0  0  0  0  0
    0.2769    1.4814   -1.4765 C   0  0  0  0  0  0  0  0  0  0  0  0
   -0.5889    1.6109   -2.3460 O   0  0  0  0  0  0  0  0  0  0  0  0
    1.5225    1.9198   -1.8077 N   0  0  0  0  0  0  0  0  0  0  0  0
    2.8083    1.6498   -1.2046 C   0  0  0  0  0  0  0  0  0  0  0  0
    3.4409    0.4392   -1.9029 C   0  0  0  0  0  0  0  0  0  0  0  0
    4.2415    0.7418   -3.1514 C   0  0  0  0  0  0  0  0  0  0  0  0
    5.5124    1.5111   -2.8733 C   0  0  0  0  0  0  0  0  0  0  0  0
    6.4159    0.8366   -1.9449 N   0  0  0  0  0  0  0  0  0  0  0  0
    7.7828    0.7100   -2.0415 C   0  0  0  0  0  0  0  0  0  0  0  0
    8.4128    0.0301   -1.2409 O   0  0  0  0  0  0  0  0  0  0  0  0
    8.4515    1.3825   -3.1697 C   0  0  0  0  0  0  0  0  0  0  0  0
    9.2594    0.6362   -4.0260 C   0  0  0  0  0  0  0  0  0  0  0  0
    9.6772    1.2068   -5.2273 C   0  0  0  0  0  0  0  0  0  0  0  0
    9.2220    2.4830   -5.6013 C   0  0  0  0  0  0  0  0  0  0  0  0
    9.5858    3.0868   -6.9059 C   0  0  0  0  0  0  0  0  0  0  0  0
   10.3313    4.3949   -6.9308 C   0  0  0  0  0  0  0  0  0  0  0  0
   10.6962    5.1151   -7.9586 N   0  0  0  0  0  0  0  0  0  0  0  0
   11.2942    6.2513   -7.4265 C   0  0  0  0  0  0  0  0  0  0  0  0
   11.9183    7.2625   -8.0729 C   0  0  0  0  0  0  0  0  0  0  0  0
   12.5007    8.3701   -7.2346 C   0  0  0  0  0  0  0  0  0  0  0  0
   13.5989    8.1410   -6.3843 C   0  0  0  0  0  0  0  0  0  0  0  0
   14.1168    9.1751   -5.6013 C   0  0  0  0  0  0  0  0  0  0  0  0
   13.5627   10.4548   -5.6962 C   0  0  0  0  0  0  0  0  0  0  0  0
   14.2754   11.7837   -4.6895 S   0  0  0  0  0  0  0  0  0  0  0  0
   13.8411   11.4089   -3.3458 O   0  0  0  0  0  0  0  0  0  0  0  0
   15.7064   11.6463   -4.9478 O   0  0  0  0  0  0  0  0  0  0  0  0
   13.6605   12.9947   -5.2268 O   0  5  0  0  0  0  0  0  0  0  0  0
   12.4982   10.7116   -6.5625 C   0  0  0  0  0  0  0  0  0  0  0  0
   11.9607    9.6659   -7.3181 C   0  0  0  0  0  0  0  0  0  0  0  0
   12.0524    7.3311   -9.5014 C   0  0  0  0  0  0  0  0  0  0  0  0
   12.7190    8.2782  -10.2567 C   0  0  0  0  0  0  0  0  0  0  0  0
   12.5261    7.9696  -11.6063 C   0  0  0  0  0  0  0  0  0  0  0  0
   11.8009    6.7908  -11.6894 C   0  0  0  0  0  0  0  0  0  0  0  0
   11.5093    6.4155  -10.3903 N   0  0  0  0  0  0  0  0  0  0  0  0
   11.4047    6.0653  -12.8702 C   0  0  0  0  0  0  0  0  0  0  0  0
   11.8434    6.6139  -14.2019 C   0  0  0  0  0  0  0  0  0  0  0  0
   10.9208    7.1747  -15.1021 C   0  0  0  0  0  0  0  0  0  0  0  0
   11.3567    7.7046  -16.3190 C   0  0  0  0  0  0  0  0  0  0  0  0
   12.7221    7.7070  -16.6223 C   0  0  0  0  0  0  0  0  0  0  0  0
   13.2647    8.4423  -18.1882 S   0  0  0  0  0  0  0  0  0  0  0  0
   12.8019    7.4580  -19.1624 O   0  0  0  0  0  0  0  0  0  0  0  0
   12.5586    9.7211  -18.2017 O   0  0  0  0  0  0  0  0  0  0  0  0
   14.7154    8.5395  -18.0419 O   0  5  0  0  0  0  0  0  0  0  0  0
   13.6557    7.1828  -15.7269 C   0  0  0  0  0  0  0  0  0  0  0  0
   13.2127    6.6234  -14.5270 C   0  0  0  0  0  0  0  0  0  0  0  0
   10.6937    4.9103  -12.8731 C   0  0  0  0  0  0  0  0  0  0  0  0
   10.1994    4.1811  -11.7970 N   0  0  0  0  0  0  0  0  0  0  0  0
    9.5707    3.1545  -12.3199 C   0  0  0  0  0  0  0  0  0  0  0  0
    8.8748    2.0168  -11.6218 C   0  0  0  0  0  0  0  0  0  0  0  0
    8.2202    0.9255  -12.3969 C   0  0  0  0  0  0  0  0  0  0  0  0
    8.9891    0.0206  -13.1506 C   0  0  0  0  0  0  0  0  0  0  0  0
    8.3713   -0.9941  -13.8886 C   0  0  0  0  0  0  0  0  0  0  0  0
    6.9805   -1.1261  -13.8509 C   0  0  0  0  0  0  0  0  0  0  0  0
    6.2051   -2.4790  -14.7789 S   0  0  0  0  0  0  0  0  0  0  0  0
    6.3753   -2.0374  -16.1593 O   0  0  0  0  0  0  0  0  0  0  0  0
    7.0062   -3.6331  -14.3790 O   0  0  0  0  0  0  0  0  0  0  0  0
    4.8287   -2.4852  -14.2880 O   0  5  0  0  0  0  0  0  0  0  0  0
    6.2013   -0.2527  -13.0904 C   0  0  0  0  0  0  0  0  0  0  0  0
    6.8207    0.7796  -12.3797 C   0  0  0  0  0  0  0  0  0  0  0  0
    8.8676    1.9887  -10.2747 C   0  0  0  0  0  0  0  0  0  0  0  0
    8.2520    0.9510   -9.4543 C   0  0  0  0  0  0  0  0  0  0  0  0
    8.4170    1.2614   -8.1581 C   0  0  0  0  0  0  0  0  0  0  0  0
    9.1947    2.4999   -8.0549 C   0  0  0  0  0  0  0  0  0  0  0  0
    9.3997    2.8684   -9.3606 N   0  0  0  0  0  0  0  0  0  0  0  0
    9.5698    3.1313  -13.7886 C   0  0  0  0  0  0  0  0  0  0  0  0
   10.3063    4.1966  -14.0731 C   0  0  0  0  0  0  0  0  0  0  0  0
   11.1759    6.1644   -5.9902 C   0  0  0  0  0  0  0  0  0  0  0  0
   10.6797    4.9925   -5.6289 C   0  0  0  0  0  0  0  0  0  0  0  0
    8.4280    3.2198   -4.7107 C   0  0  0  0  0  0  0  0  0  0  0  0
    8.1274    2.7098   -3.4594 C   0  0  0  0  0  0  0  0  0  0  0  0
   -1.5980    0.8273    0.1025 C   0  0  0  0  0  0  0  0  0  0  0  0
   -1.7646   -0.6803    0.0903 C   0  0  0  0  0  0  0  0  0  0  0  0
   -0.6028   -1.1714    0.8460 N   0  0  0  0  0  0  0  0  0  0  0  0
   -0.8356   -1.7354    2.4246 S   0  0  0  0  0  0  0  0  0  0  0  0
   -1.1298   -0.5951    3.2615 O   0  0  0  0  0  0  0  0  0  0  0  0
   -1.7161   -2.8845    2.3682 O   0  0  0  0  0  0  0  0  0  0  0  0
    0.6834   -2.3283    3.0400 C   0  0  0  0  0  0  0  0  0  0  0  0
    1.7432   -1.5251    3.4467 C   0  0  0  0  0  0  0  0  0  0  0  0
    2.7791   -2.3390    3.8137 N   0  0  0  0  0  0  0  0  0  0  0  0
    2.3895   -3.6434    3.7221 C   0  0  0  0  0  0  0  0  0  0  0  0
    3.1763   -4.6751    4.0755 N   0  0  0  0  0  0  0  0  0  0  0  0
    2.5797   -5.8740    3.9092 C   0  0  0  0  0  0  0  0  0  0  0  0
    1.3013   -6.0734    3.4084 C   0  0  0  0  0  0  0  0  0  0  0  0
    0.5322   -4.9652    3.0427 C   0  0  0  0  0  0  0  0  0  0  0  0
    1.0881   -3.6851    3.2213 C   0  0  0  0  0  0  0  0  0  0  0  0
    2.4350   -0.4585   -0.2371 H   0  0  0  0  0  0  0  0  0  0  0  0
    1.1928   -1.4597   -0.9495 H   0  0  0  0  0  0  0  0  0  0  0  0
    1.8470   -1.8632    0.6197 H   0  0  0  0  0  0  0  0  0  0  0  0
    1.0019    0.2388    1.4653 H   0  0  0  0  0  0  0  0  0  0  0  0
    0.3868    1.8734    0.4340 H   0  0  0  0  0  0  0  0  0  0  0  0
    1.5526    2.5203   -2.5872 H   0  0  0  0  0  0  0  0  0  0  0  0
    2.6792    1.4371   -0.1639 H   0  0  0  0  0  0  0  0  0  0  0  0
    3.4449    2.5032   -1.3113 H   0  0  0  0  0  0  0  0  0  0  0  0
    2.6530   -0.2324   -2.1731 H   0  0  0  0  0  0  0  0  0  0  0  0
    4.1393    0.0320   -1.2019 H   0  0  0  0  0  0  0  0  0  0  0  0
    3.6322    1.3203   -3.8140 H   0  0  0  0  0  0  0  0  0  0  0  0
    4.5257   -0.1959   -3.5813 H   0  0  0  0  0  0  0  0  0  0  0  0
    5.2482    2.4609   -2.4575 H   0  0  0  0  0  0  0  0  0  0  0  0
    6.0321    1.6032   -3.8040 H   0  0  0  0  0  0  0  0  0  0  0  0
    5.9970    0.4231   -1.1557 H   0  0  0  0  0  0  0  0  0  0  0  0
    9.5437   -0.3235   -3.7746 H   0  0  0  0  0  0  0  0  0  0  0  0
   10.3232    0.6902   -5.8444 H   0  0  0  0  0  0  0  0  0  0  0  0
   14.0245    7.2019   -6.3391 H   0  0  0  0  0  0  0  0  0  0  0  0
   14.9030    8.9956   -4.9573 H   0  0  0  0  0  0  0  0  0  0  0  0
   12.1118   11.6650   -6.6441 H   0  0  0  0  0  0  0  0  0  0  0  0
   11.1598    9.8464   -7.9434 H   0  0  0  0  0  0  0  0  0  0  0  0
   13.2636    9.0737   -9.8885 H   0  0  0  0  0  0  0  0  0  0  0  0
   12.8663    8.5257  -12.4064 H   0  0  0  0  0  0  0  0  0  0  0  0
   10.9930    5.6171  -10.1347 H   0  0  0  0  0  0  0  0  0  0  0  0
    9.9171    7.1950  -14.8630 H   0  0  0  0  0  0  0  0  0  0  0  0
   10.6752    8.0920  -16.9902 H   0  0  0  0  0  0  0  0  0  0  0  0
   14.6631    7.2085  -15.9496 H   0  0  0  0  0  0  0  0  0  0  0  0
   13.8961    6.2127  -13.8718 H   0  0  0  0  0  0  0  0  0  0  0  0
   10.0175    0.1061  -13.1591 H   0  0  0  0  0  0  0  0  0  0  0  0
    8.9390   -1.6414  -14.4576 H   0  0  0  0  0  0  0  0  0  0  0  0
    5.1764   -0.3680  -13.0531 H   0  0  0  0  0  0  0  0  0  0  0  0
    6.2452    1.4420  -11.8364 H   0  0  0  0  0  0  0  0  0  0  0  0
    7.7676    0.1131   -9.8125 H   0  0  0  0  0  0  0  0  0  0  0  0
    8.0541    0.7150   -7.3614 H   0  0  0  0  0  0  0  0  0  0  0  0
    9.8827    3.6863   -9.6193 H   0  0  0  0  0  0  0  0  0  0  0  0
    9.1157    2.4623  -14.4299 H   0  0  0  0  0  0  0  0  0  0  0  0
   10.5704    4.4816  -15.0292 H   0  0  0  0  0  0  0  0  0  0  0  0
   11.4424    6.9150   -5.3341 H   0  0  0  0  0  0  0  0  0  0  0  0
   10.5660    4.5989   -4.6817 H   0  0  0  0  0  0  0  0  0  0  0  0
    8.0665    4.1455   -4.9891 H   0  0  0  0  0  0  0  0  0  0  0  0
    7.6696    3.3028   -2.7496 H   0  0  0  0  0  0  0  0  0  0  0  0
   -2.1291    1.2744   -0.7117 H   0  0  0  0  0  0  0  0  0  0  0  0
   -1.9863    1.2753    0.9932 H   0  0  0  0  0  0  0  0  0  0  0  0
   -1.7536   -1.0563   -0.9114 H   0  0  0  0  0  0  0  0  0  0  0  0
   -2.6952   -0.9957    0.5138 H   0  0  0  0  0  0  0  0  0  0  0  0
    1.7473   -0.4933    3.4679 H   0  0  0  0  0  0  0  0  0  0  0  0
    3.6693   -2.0310    4.1000 H   0  0  0  0  0  0  0  0  0  0  0  0
    3.1191   -6.7121    4.1767 H   0  0  0  0  0  0  0  0  0  0  0  0
    0.9230   -7.0282    3.3072 H   0  0  0  0  0  0  0  0  0  0  0  0
   -0.4161   -5.0825    2.6529 H   0  0  0  0  0  0  0  0  0  0  0  0
  1  2  1  0  0  0  0
  1 89  1  0  0  0  0
  1 90  1  0  0  0  0
  1 91  1  0  0  0  0
  2  3  1  0  0  0  0
  2 76  1  0  0  0  0
  2 92  1  1  0  0  0
  3 74  1  0  0  0  0
  3  4  1  0  0  0  0
  3 93  1  1  0  0  0
  4  5  2  0  0  0  0
  4  6  1  0  0  0  0
  6  7  1  0  0  0  0
  6 94  1  0  0  0  0
  7  8  1  0  0  0  0
  7 95  1  0  0  0  0
  7 96  1  0  0  0  0
  8  9  1  0  0  0  0
  8 97  1  0  0  0  0
  8 98  1  0  0  0  0
  9 10  1  0  0  0  0
  9 99  1  0  0  0  0
  9100  1  0  0  0  0
 10 11  1  0  0  0  0
 10101  1  0  0  0  0
 10102  1  0  0  0  0
 11 12  1  0  0  0  0
 11103  1  0  0  0  0
 12 13  2  0  0  0  0
 12 14  1  0  0  0  0
 14 15  1  0  0  0  0
 14 73  2  0  0  0  0
 15 16  2  0  0  0  0
 15104  1  0  0  0  0
 16 17  1  0  0  0  0
 16105  1  0  0  0  0
 17 18  1  0  0  0  0
 17 72  2  0  0  0  0
 18 19  1  0  0  0  0
 18 66  2  0  0  0  0
 19 20  2  0  0  0  0
 19 71  1  0  0  0  0
 20 21  1  0  0  0  0
 21 22  2  0  0  0  0
 21 70  1  0  0  0  0
 22 23  1  0  0  0  0
 22 33  1  0  0  0  0
 23 24  1  0  0  0  0
 23 32  2  0  0  0  0
 24 25  2  0  0  0  0
 24106  1  0  0  0  0
 25 26  1  0  0  0  0
 25107  1  0  0  0  0
 26 27  1  0  0  0  0
 26 31  2  0  0  0  0
 27 28  2  0  0  0  0
 27 29  2  0  0  0  0
 27 30  1  0  0  0  0
 31 32  1  0  0  0  0
 31108  1  0  0  0  0
 32109  1  0  0  0  0
 33 34  2  0  0  0  0
 33 37  1  0  0  0  0
 34 35  1  0  0  0  0
 34110  1  0  0  0  0
 35 36  2  0  0  0  0
 35111  1  0  0  0  0
 36 37  1  0  0  0  0
 36 38  1  0  0  0  0
 37112  1  0  0  0  0
 38 39  1  0  0  0  0
 38 49  2  0  0  0  0
 39 40  1  0  0  0  0
 39 48  2  0  0  0  0
 40 41  2  0  0  0  0
 40113  1  0  0  0  0
 41 42  1  0  0  0  0
 41114  1  0  0  0  0
 42 43  1  0  0  0  0
 42 47  2  0  0  0  0
 43 44  2  0  0  0  0
 43 45  2  0  0  0  0
 43 46  1  0  0  0  0
 47 48  1  0  0  0  0
 47115  1  0  0  0  0
 48116  1  0  0  0  0
 49 50  1  0  0  0  0
 49 69  1  0  0  0  0
 50 51  2  0  0  0  0
 51 52  1  0  0  0  0
 51 68  1  0  0  0  0
 52 53  1  0  0  0  0
 52 63  2  0  0  0  0
 53 54  1  0  0  0  0
 53 62  2  0  0  0  0
 54 55  2  0  0  0  0
 54117  1  0  0  0  0
 55 56  1  0  0  0  0
 55118  1  0  0  0  0
 56 57  1  0  0  0  0
 56 61  2  0  0  0  0
 57 58  2  0  0  0  0
 57 59  2  0  0  0  0
 57 60  1  0  0  0  0
 61 62  1  0  0  0  0
 61119  1  0  0  0  0
 62120  1  0  0  0  0
 63 64  1  0  0  0  0
 63 67  1  0  0  0  0
 64 65  2  0  0  0  0
 64121  1  0  0  0  0
 65 66  1  0  0  0  0
 65122  1  0  0  0  0
 66 67  1  0  0  0  0
 67123  1  0  0  0  0
 68 69  2  0  0  0  0
 68124  1  0  0  0  0
 69125  1  0  0  0  0
 70 71  2  0  0  0  0
 70126  1  0  0  0  0
 71127  1  0  0  0  0
 72 73  1  0  0  0  0
 72128  1  0  0  0  0
 73129  1  0  0  0  0
 74 75  1  0  0  0  0
 74130  1  0  0  0  0
 74131  1  0  0  0  0
 75 76  1  0  0  0  0
 75132  1  0  0  0  0
 75133  1  0  0  0  0
 76 77  1  0  0  0  0
 77 78  2  0  0  0  0
 77 79  2  0  0  0  0
 77 80  1  0  0  0  0
 80 81  2  0  0  0  0
 80 88  1  0  0  0  0
 81 82  1  0  0  0  0
 81134  1  0  0  0  0
 82 83  1  0  0  0  0
 82135  1  0  0  0  0
 83 84  1  0  0  0  0
 83 88  2  0  0  0  0
 84 85  2  0  0  0  0
 85 86  1  0  0  0  0
 85136  1  0  0  0  0
 86 87  2  0  0  0  0
 86137  1  0  0  0  0
 87 88  1  0  0  0  0
 87138  1  0  0  0  0
M  CHG  3  30  -1  46  -1  60  -1
M  END
$$$$
