3_1_9478
 OpenBabel04152301363D

146156  0  0  1  0  0  0  0  0999 V2000
    0.4329    0.0628    0.8554 C   0  0  0  0  0  0  0  0  0  0  0  0
   -0.1891    1.2978    1.5311 C   0  0  0  0  0  0  0  0  0  0  0  0
   -0.2079    2.5654    0.5958 C   0  0  1  0  0  0  0  0  0  0  0  0
   -1.3624    2.3875   -0.4151 C   0  0  0  0  0  0  0  0  0  0  0  0
   -0.1217    4.0285    1.2642 C   0  0  1  0  0  0  0  0  0  0  0  0
    0.0087    3.8652    2.6882 N   0  0  0  0  0  0  0  0  0  0  0  0
    1.1957    3.6177    3.2835 C   0  0  0  0  0  0  0  0  0  0  0  0
    1.2212    3.2905    4.4678 O   0  0  0  0  0  0  0  0  0  0  0  0
    2.4487    3.9139    2.4900 C   0  0  0  0  0  0  0  0  0  0  0  0
    2.8174    3.1965    1.1245 C   0  0  0  0  0  0  0  0  0  0  0  0
    2.5677    3.2022   -0.3595 N   0  0  0  0  0  0  0  0  0  0  0  0
    3.1524    2.0813   -0.9808 C   0  0  0  0  0  0  0  0  0  0  0  0
    2.4940    1.7902   -2.1420 C   0  0  0  0  0  0  0  0  0  0  0  0
    1.5836    2.8310   -2.3953 C   0  0  0  0  0  0  0  0  0  0  0  0
    0.6351    3.0251   -3.4374 C   0  0  0  0  0  0  0  0  0  0  0  0
   -0.0908    4.2072   -3.5627 C   0  0  0  0  0  0  0  0  0  0  0  0
    0.2283    5.2477   -2.7326 C   0  0  0  0  0  0  0  0  0  0  0  0
   -0.6077    6.9357   -2.9611 Br  0  0  0  0  0  0  0  0  0  0  0  0
    1.1825    5.0756   -1.7199 C   0  0  0  0  0  0  0  0  0  0  0  0
    1.7806    3.8157   -1.3949 C   0  0  0  0  0  0  0  0  0  0  0  0
    0.5881    5.5420    0.9420 C   0  0  0  0  0  0  0  0  0  0  0  0
   -0.2406    6.4861    1.0201 O   0  0  0  0  0  0  0  0  0  0  0  0
    1.8396    6.1053    0.7601 N   0  0  0  0  0  0  0  0  0  0  0  0
    3.4075    6.1102    0.5987 C   0  0  0  0  0  0  0  0  0  0  0  0
    4.1858    5.6176   -0.6618 C   0  0  0  0  0  0  0  0  0  0  0  0
    5.5613    6.2472   -0.9617 C   0  0  0  0  0  0  0  0  0  0  0  0
    6.4565    6.5677    0.2350 C   0  0  0  0  0  0  0  0  0  0  0  0
    7.0765    5.4186    0.8675 N   0  0  0  0  0  0  0  0  0  0  0  0
    8.3608    4.9265    0.8222 C   0  0  0  0  0  0  0  0  0  0  0  0
    8.7258    4.2422    1.7809 O   0  0  0  0  0  0  0  0  0  0  0  0
    9.2694    5.0692   -0.3489 C   0  0  0  0  0  0  0  0  0  0  0  0
    8.9322    5.7601   -1.5067 C   0  0  0  0  0  0  0  0  0  0  0  0
    9.6531    5.5654   -2.6678 C   0  0  0  0  0  0  0  0  0  0  0  0
   10.7686    4.7254   -2.6756 C   0  0  0  0  0  0  0  0  0  0  0  0
   11.4193    4.5620   -3.9708 C   0  0  0  0  0  0  0  0  0  0  0  0
   11.7624    5.8494   -4.6503 C   0  0  0  0  0  0  0  0  0  0  0  0
   11.3326    6.3033   -5.7836 N   0  0  0  0  0  0  0  0  0  0  0  0
   11.9001    7.5675   -5.9344 C   0  0  0  0  0  0  0  0  0  0  0  0
   11.9312    8.2347   -7.1214 C   0  0  0  0  0  0  0  0  0  0  0  0
   13.0289    9.1896   -7.5132 C   0  0  0  0  0  0  0  0  0  0  0  0
   14.2525    9.2654   -6.8164 C   0  0  0  0  0  0  0  0  0  0  0  0
   15.3426    9.9875   -7.3011 C   0  0  0  0  0  0  0  0  0  0  0  0
   15.2473   10.6189   -8.5343 C   0  0  0  0  0  0  0  0  0  0  0  0
   16.7290   11.4315   -9.1792 S   0  0  0  0  0  0  0  0  0  0  0  0
   16.8765   12.5583   -8.2650 O   0  0  0  0  0  0  0  0  0  0  0  0
   17.7369   10.3849   -9.0616 O   0  0  0  0  0  0  0  0  0  0  0  0
   16.3551   11.7843  -10.5514 O   0  5  0  0  0  0  0  0  0  0  0  0
   14.0625   10.5629   -9.2657 C   0  0  0  0  0  0  0  0  0  0  0  0
   12.9573    9.8697   -8.7464 C   0  0  0  0  0  0  0  0  0  0  0  0
   10.9716    7.7214   -8.0564 C   0  0  0  0  0  0  0  0  0  0  0  0
    9.5931    7.7196   -8.1168 C   0  0  0  0  0  0  0  0  0  0  0  0
    9.2537    6.4568   -8.6786 C   0  0  0  0  0  0  0  0  0  0  0  0
   10.4417    5.7875   -8.9848 C   0  0  0  0  0  0  0  0  0  0  0  0
   11.3934    6.7759   -8.9589 N   0  0  0  0  0  0  0  0  0  0  0  0
   10.7276    4.3757   -9.1591 C   0  0  0  0  0  0  0  0  0  0  0  0
    9.5157    3.4688   -9.2495 C   0  0  0  0  0  0  0  0  0  0  0  0
    8.6234    3.6815  -10.3163 C   0  0  0  0  0  0  0  0  0  0  0  0
    7.3609    3.0844  -10.3311 C   0  0  0  0  0  0  0  0  0  0  0  0
    6.9809    2.2439   -9.2833 C   0  0  0  0  0  0  0  0  0  0  0  0
    5.3030    1.5528   -9.3073 S   0  0  0  0  0  0  0  0  0  0  0  0
    4.4794    2.7270   -9.0261 O   0  0  0  0  0  0  0  0  0  0  0  0
    5.1903    1.0259  -10.6660 O   0  0  0  0  0  0  0  0  0  0  0  0
    5.3188    0.5411   -8.2533 O   0  5  0  0  0  0  0  0  0  0  0  0
    7.8646    1.9703   -8.2368 C   0  0  0  0  0  0  0  0  0  0  0  0
    9.1231    2.5952   -8.2145 C   0  0  0  0  0  0  0  0  0  0  0  0
   11.9652    3.8183   -9.0052 C   0  0  0  0  0  0  0  0  0  0  0  0
   12.1269    2.4671   -8.7323 N   0  0  0  0  0  0  0  0  0  0  0  0
   13.2597    2.3861   -8.0911 C   0  0  0  0  0  0  0  0  0  0  0  0
   13.4997    1.4553   -6.9578 C   0  0  0  0  0  0  0  0  0  0  0  0
   14.7755    0.7066   -6.8097 C   0  0  0  0  0  0  0  0  0  0  0  0
   15.5080    0.7972   -5.6069 C   0  0  0  0  0  0  0  0  0  0  0  0
   16.8587    0.4435   -5.5484 C   0  0  0  0  0  0  0  0  0  0  0  0
   17.4992   -0.0091   -6.6999 C   0  0  0  0  0  0  0  0  0  0  0  0
   19.2957   -0.2631   -6.6347 S   0  0  0  0  0  0  0  0  0  0  0  0
   19.7874    1.0996   -6.4513 O   0  0  0  0  0  0  0  0  0  0  0  0
   19.4479   -1.1449   -5.4799 O   0  0  0  0  0  0  0  0  0  0  0  0
   19.6069   -0.8722   -7.9252 O   0  5  0  0  0  0  0  0  0  0  0  0
   16.7833   -0.1852   -7.8857 C   0  0  0  0  0  0  0  0  0  0  0  0
   15.4247    0.1707   -7.9370 C   0  0  0  0  0  0  0  0  0  0  0  0
   12.7034    1.8561   -5.9360 C   0  0  0  0  0  0  0  0  0  0  0  0
   12.3279    1.1726   -4.7101 C   0  0  0  0  0  0  0  0  0  0  0  0
   11.6418    2.0347   -3.9241 C   0  0  0  0  0  0  0  0  0  0  0  0
   11.6824    3.3671   -4.5301 C   0  0  0  0  0  0  0  0  0  0  0  0
   12.1571    3.1199   -5.7790 N   0  0  0  0  0  0  0  0  0  0  0  0
   14.1370    3.5394   -8.2253 C   0  0  0  0  0  0  0  0  0  0  0  0
   13.2736    4.4159   -8.7445 C   0  0  0  0  0  0  0  0  0  0  0  0
   12.5337    7.8811   -4.6786 C   0  0  0  0  0  0  0  0  0  0  0  0
   12.5523    6.8202   -3.8743 C   0  0  0  0  0  0  0  0  0  0  0  0
   11.2224    4.1575   -1.4919 C   0  0  0  0  0  0  0  0  0  0  0  0
   10.4617    4.3159   -0.3354 C   0  0  0  0  0  0  0  0  0  0  0  0
    0.4175   -0.7622    1.5367 H   0  0  0  0  0  0  0  0  0  0  0  0
    1.4439    0.2786    0.5793 H   0  0  0  0  0  0  0  0  0  0  0  0
   -0.1303   -0.1866   -0.0195 H   0  0  0  0  0  0  0  0  0  0  0  0
    0.3787    1.5292    2.4080 H   0  0  0  0  0  0  0  0  0  0  0  0
   -1.2050    1.0574    1.7658 H   0  0  0  0  0  0  0  0  0  0  0  0
    0.7415    2.5814    0.1026 H   0  0  0  0  0  0  0  0  0  0  0  0
   -2.2958    2.3755    0.1079 H   0  0  0  0  0  0  0  0  0  0  0  0
   -1.2366    1.4644   -0.9414 H   0  0  0  0  0  0  0  0  0  0  0  0
   -1.3545    3.1994   -1.1120 H   0  0  0  0  0  0  0  0  0  0  0  0
   -0.9181    4.2613    0.5885 H   0  0  0  0  0  0  0  0  0  0  0  0
   -0.7972    3.9365    3.2492 H   0  0  0  0  0  0  0  0  0  0  0  0
    3.2659    3.7173    3.1521 H   0  0  0  0  0  0  0  0  0  0  0  0
    2.2480    4.9091    2.1521 H   0  0  0  0  0  0  0  0  0  0  0  0
    2.5479    2.1881    1.3597 H   0  0  0  0  0  0  0  0  0  0  0  0
    3.6685    3.8330    1.0006 H   0  0  0  0  0  0  0  0  0  0  0  0
    3.9608    1.5562   -0.6123 H   0  0  0  0  0  0  0  0  0  0  0  0
    2.6393    0.9541   -2.7293 H   0  0  0  0  0  0  0  0  0  0  0  0
    0.4802    2.2676   -4.1209 H   0  0  0  0  0  0  0  0  0  0  0  0
   -0.8462    4.2959   -4.2602 H   0  0  0  0  0  0  0  0  0  0  0  0
    1.4705    5.9049   -1.1773 H   0  0  0  0  0  0  0  0  0  0  0  0
    1.6242    7.0635    0.6913 H   0  0  0  0  0  0  0  0  0  0  0  0
    3.7783    5.5194    1.4101 H   0  0  0  0  0  0  0  0  0  0  0  0
    3.5884    7.1628    0.5342 H   0  0  0  0  0  0  0  0  0  0  0  0
    3.5615    5.8000   -1.5114 H   0  0  0  0  0  0  0  0  0  0  0  0
    4.4041    4.5909   -0.4539 H   0  0  0  0  0  0  0  0  0  0  0  0
    5.3889    7.1620   -1.4893 H   0  0  0  0  0  0  0  0  0  0  0  0
    6.0933    5.5002   -1.5129 H   0  0  0  0  0  0  0  0  0  0  0  0
    5.8608    7.0685    0.9693 H   0  0  0  0  0  0  0  0  0  0  0  0
    7.2580    7.1659   -0.1453 H   0  0  0  0  0  0  0  0  0  0  0  0
    6.4655    4.8940    1.4338 H   0  0  0  0  0  0  0  0  0  0  0  0
    8.1398    6.4212   -1.4984 H   0  0  0  0  0  0  0  0  0  0  0  0
    9.3657    6.0438   -3.5359 H   0  0  0  0  0  0  0  0  0  0  0  0
   14.3445    8.7691   -5.9162 H   0  0  0  0  0  0  0  0  0  0  0  0
   16.2119   10.0521   -6.7486 H   0  0  0  0  0  0  0  0  0  0  0  0
   13.9977   11.0286  -10.1844 H   0  0  0  0  0  0  0  0  0  0  0  0
   12.0734    9.8577   -9.2789 H   0  0  0  0  0  0  0  0  0  0  0  0
    8.9494    8.4695   -7.8197 H   0  0  0  0  0  0  0  0  0  0  0  0
    8.2983    6.0984   -8.8328 H   0  0  0  0  0  0  0  0  0  0  0  0
   12.2231    6.8023   -9.4881 H   0  0  0  0  0  0  0  0  0  0  0  0
    8.9065    4.2889  -11.1011 H   0  0  0  0  0  0  0  0  0  0  0  0
    6.7119    3.2638  -11.1131 H   0  0  0  0  0  0  0  0  0  0  0  0
    7.5956    1.3149   -7.4864 H   0  0  0  0  0  0  0  0  0  0  0  0
    9.7685    2.4124   -7.4303 H   0  0  0  0  0  0  0  0  0  0  0  0
   15.0361    1.1318   -4.7523 H   0  0  0  0  0  0  0  0  0  0  0  0
   17.3776    0.5170   -4.6594 H   0  0  0  0  0  0  0  0  0  0  0  0
   17.2494   -0.5746   -8.7200 H   0  0  0  0  0  0  0  0  0  0  0  0
   14.8962    0.0372   -8.8133 H   0  0  0  0  0  0  0  0  0  0  0  0
   12.5480    0.1916   -4.4771 H   0  0  0  0  0  0  0  0  0  0  0  0
   11.1668    1.7922   -3.0406 H   0  0  0  0  0  0  0  0  0  0  0  0
   12.1165    3.7803   -6.5080 H   0  0  0  0  0  0  0  0  0  0  0  0
   15.1355    3.6482   -7.9883 H   0  0  0  0  0  0  0  0  0  0  0  0
   13.5038    5.4028   -8.9395 H   0  0  0  0  0  0  0  0  0  0  0  0
   12.9217    8.8058   -4.4349 H   0  0  0  0  0  0  0  0  0  0  0  0
   13.0012    6.7080   -2.9518 H   0  0  0  0  0  0  0  0  0  0  0  0
   12.1076    3.6275   -1.4695 H   0  0  0  0  0  0  0  0  0  0  0  0
   10.7752    3.8757    0.5438 H   0  0  0  0  0  0  0  0  0  0  0  0
  1  2  1  0  0  0  0
  1 91  1  0  0  0  0
  1 92  1  0  0  0  0
  1 93  1  0  0  0  0
  2  3  1  0  0  0  0
  2 94  1  0  0  0  0
  2 95  1  0  0  0  0
  3  4  1  0  0  0  0
  3  5  1  0  0  0  0
  3 96  1  6  0  0  0
  4 97  1  0  0  0  0
  4 98  1  0  0  0  0
  4 99  1  0  0  0  0
  5  6  1  0  0  0  0
  5 21  1  0  0  0  0
  5100  1  6  0  0  0
  6  7  1  0  0  0  0
  6101  1  0  0  0  0
  7  8  2  0  0  0  0
  7  9  1  0  0  0  0
  9 10  1  0  0  0  0
  9102  1  0  0  0  0
  9103  1  0  0  0  0
 10 11  1  0  0  0  0
 10104  1  0  0  0  0
 10105  1  0  0  0  0
 11 12  1  0  0  0  0
 11 20  1  0  0  0  0
 12 13  2  0  0  0  0
 12106  1  0  0  0  0
 13 14  1  0  0  0  0
 13107  1  0  0  0  0
 14 15  1  0  0  0  0
 14 20  2  0  0  0  0
 15 16  2  0  0  0  0
 15108  1  0  0  0  0
 16 17  1  0  0  0  0
 16109  1  0  0  0  0
 17 18  1  0  0  0  0
 17 19  2  0  0  0  0
 19 20  1  0  0  0  0
 19110  1  0  0  0  0
 21 22  2  0  0  0  0
 21 23  1  0  0  0  0
 23 24  1  0  0  0  0
 23111  1  0  0  0  0
 24 25  1  0  0  0  0
 24112  1  0  0  0  0
 24113  1  0  0  0  0
 25 26  1  0  0  0  0
 25114  1  0  0  0  0
 25115  1  0  0  0  0
 26 27  1  0  0  0  0
 26116  1  0  0  0  0
 26117  1  0  0  0  0
 27 28  1  0  0  0  0
 27118  1  0  0  0  0
 27119  1  0  0  0  0
 28 29  1  0  0  0  0
 28120  1  0  0  0  0
 29 30  2  0  0  0  0
 29 31  1  0  0  0  0
 31 32  1  0  0  0  0
 31 90  2  0  0  0  0
 32 33  2  0  0  0  0
 32121  1  0  0  0  0
 33 34  1  0  0  0  0
 33122  1  0  0  0  0
 34 35  1  0  0  0  0
 34 89  2  0  0  0  0
 35 36  1  0  0  0  0
 35 83  2  0  0  0  0
 36 37  2  0  0  0  0
 36 88  1  0  0  0  0
 37 38  1  0  0  0  0
 38 39  2  0  0  0  0
 38 87  1  0  0  0  0
 39 40  1  0  0  0  0
 39 50  1  0  0  0  0
 40 41  1  0  0  0  0
 40 49  2  0  0  0  0
 41 42  2  0  0  0  0
 41123  1  0  0  0  0
 42 43  1  0  0  0  0
 42124  1  0  0  0  0
 43 44  1  0  0  0  0
 43 48  2  0  0  0  0
 44 45  2  0  0  0  0
 44 46  2  0  0  0  0
 44 47  1  0  0  0  0
 48 49  1  0  0  0  0
 48125  1  0  0  0  0
 49126  1  0  0  0  0
 50 51  2  0  0  0  0
 50 54  1  0  0  0  0
 51 52  1  0  0  0  0
 51127  1  0  0  0  0
 52 53  2  0  0  0  0
 52128  1  0  0  0  0
 53 54  1  0  0  0  0
 53 55  1  0  0  0  0
 54129  1  0  0  0  0
 55 56  1  0  0  0  0
 55 66  2  0  0  0  0
 56 57  1  0  0  0  0
 56 65  2  0  0  0  0
 57 58  2  0  0  0  0
 57130  1  0  0  0  0
 58 59  1  0  0  0  0
 58131  1  0  0  0  0
 59 60  1  0  0  0  0
 59 64  2  0  0  0  0
 60 61  2  0  0  0  0
 60 62  2  0  0  0  0
 60 63  1  0  0  0  0
 64 65  1  0  0  0  0
 64132  1  0  0  0  0
 65133  1  0  0  0  0
 66 67  1  0  0  0  0
 66 86  1  0  0  0  0
 67 68  2  0  0  0  0
 68 69  1  0  0  0  0
 68 85  1  0  0  0  0
 69 70  1  0  0  0  0
 69 80  2  0  0  0  0
 70 71  1  0  0  0  0
 70 79  2  0  0  0  0
 71 72  2  0  0  0  0
 71134  1  0  0  0  0
 72 73  1  0  0  0  0
 72135  1  0  0  0  0
 73 74  1  0  0  0  0
 73 78  2  0  0  0  0
 74 75  2  0  0  0  0
 74 76  2  0  0  0  0
 74 77  1  0  0  0  0
 78 79  1  0  0  0  0
 78136  1  0  0  0  0
 79137  1  0  0  0  0
 80 81  1  0  0  0  0
 80 84  1  0  0  0  0
 81 82  2  0  0  0  0
 81138  1  0  0  0  0
 82 83  1  0  0  0  0
 82139  1  0  0  0  0
 83 84  1  0  0  0  0
 84140  1  0  0  0  0
 85 86  2  0  0  0  0
 85141  1  0  0  0  0
 86142  1  0  0  0  0
 87 88  2  0  0  0  0
 87143  1  0  0  0  0
 88144  1  0  0  0  0
 89 90  1  0  0  0  0
 89145  1  0  0  0  0
 90146  1  0  0  0  0
M  CHG  3  47  -1  63  -1  77  -1
M  END
$$$$
