3_1_3441
 OpenBabel04152301373D

141150  0  0  1  0  0  0  0  0999 V2000
    1.3012    0.2660   -0.0146 C   0  0  0  0  0  0  0  0  0  0  0  0
    0.4698   -0.3985    1.0907 C   0  0  2  0  0  0  0  0  0  0  0  0
    0.4719   -1.9326    0.9390 C   0  0  0  0  0  0  0  0  0  0  0  0
   -0.3025   -2.4058   -0.2153 N   0  3  1  0  0  0  0  0  0  0  0  0
   -0.1622   -3.8634   -0.4618 C   0  0  0  0  0  0  0  0  0  0  0  0
   -0.7092   -4.9752    0.5211 C   0  0  0  0  0  0  0  0  0  0  0  0
   -2.2286   -4.8246    0.6971 C   0  0  0  0  0  0  0  0  0  0  0  0
   -0.4328   -6.3521   -0.1247 C   0  0  0  0  0  0  0  0  0  0  0  0
    0.1124   -4.9538    1.8247 C   0  0  0  0  0  0  0  0  0  0  0  0
    1.2815   -4.5540    1.8467 O   0  0  0  0  0  0  0  0  0  0  0  0
   -0.3449   -5.4393    3.0054 N   0  0  0  0  0  0  0  0  0  0  0  0
   -1.4025   -6.3767    3.3132 C   0  0  0  0  0  0  0  0  0  0  0  0
   -0.8250   -7.6836    3.8499 C   0  0  0  0  0  0  0  0  0  0  0  0
   -0.1262   -7.5642    5.2045 C   0  0  0  0  0  0  0  0  0  0  0  0
   -0.9628   -6.9267    6.3077 C   0  0  0  0  0  0  0  0  0  0  0  0
   -2.2430   -7.5910    6.4986 N   0  0  0  0  0  0  0  0  0  0  0  0
   -2.8339   -8.0143    7.6650 C   0  0  0  0  0  0  0  0  0  0  0  0
   -3.8546   -8.6879    7.6278 O   0  0  0  0  0  0  0  0  0  0  0  0
   -2.2059   -7.6712    8.9575 C   0  0  0  0  0  0  0  0  0  0  0  0
   -2.0218   -8.6783    9.9065 C   0  0  0  0  0  0  0  0  0  0  0  0
   -1.3479   -8.3880   11.0937 C   0  0  0  0  0  0  0  0  0  0  0  0
   -0.8215   -7.1045   11.3160 C   0  0  0  0  0  0  0  0  0  0  0  0
   -0.0517   -6.7932   12.5461 C   0  0  0  0  0  0  0  0  0  0  0  0
   -0.5791   -5.7822   13.5278 C   0  0  0  0  0  0  0  0  0  0  0  0
   -0.0366   -5.3494   14.6367 N   0  0  0  0  0  0  0  0  0  0  0  0
   -0.9123   -4.3930   15.1371 C   0  0  0  0  0  0  0  0  0  0  0  0
   -0.8393   -3.6990   16.2979 C   0  0  0  0  0  0  0  0  0  0  0  0
   -1.9528   -2.7289   16.5947 C   0  0  0  0  0  0  0  0  0  0  0  0
   -3.2508   -3.1841   16.8924 C   0  0  0  0  0  0  0  0  0  0  0  0
   -4.2827   -2.2744   17.1352 C   0  0  0  0  0  0  0  0  0  0  0  0
   -4.0117   -0.9033   17.1160 C   0  0  0  0  0  0  0  0  0  0  0  0
   -5.3681    0.2550   17.4442 S   0  0  0  0  0  0  0  0  0  0  0  0
   -6.1338    0.1800   16.2022 O   0  0  0  0  0  0  0  0  0  0  0  0
   -6.0143   -0.3308   18.6159 O   0  0  0  0  0  0  0  0  0  0  0  0
   -4.6889    1.5263   17.6813 O   0  5  0  0  0  0  0  0  0  0  0  0
   -2.7204   -0.4328   16.8681 C   0  0  0  0  0  0  0  0  0  0  0  0
   -1.6971   -1.3459   16.5956 C   0  0  0  0  0  0  0  0  0  0  0  0
    0.2299   -3.8354   17.2503 C   0  0  0  0  0  0  0  0  0  0  0  0
    0.3737   -3.2144   18.4784 C   0  0  0  0  0  0  0  0  0  0  0  0
    1.5922   -3.6213   19.0328 C   0  0  0  0  0  0  0  0  0  0  0  0
    2.1796   -4.5384   18.1756 C   0  0  0  0  0  0  0  0  0  0  0  0
    1.3386   -4.6516   17.0819 N   0  0  0  0  0  0  0  0  0  0  0  0
    3.4168   -5.2580   18.3453 C   0  0  0  0  0  0  0  0  0  0  0  0
    4.1800   -5.0472   19.6255 C   0  0  0  0  0  0  0  0  0  0  0  0
    5.3928   -4.3365   19.6451 C   0  0  0  0  0  0  0  0  0  0  0  0
    6.0788   -4.1456   20.8474 C   0  0  0  0  0  0  0  0  0  0  0  0
    5.5370   -4.6396   22.0384 C   0  0  0  0  0  0  0  0  0  0  0  0
    6.4282   -4.3487   23.5910 S   0  0  0  0  0  0  0  0  0  0  0  0
    7.5324   -5.2987   23.4895 O   0  0  0  0  0  0  0  0  0  0  0  0
    6.7999   -2.9394   23.4891 O   0  0  0  0  0  0  0  0  0  0  0  0
    5.4373   -4.6520   24.6211 O   0  5  0  0  0  0  0  0  0  0  0  0
    4.3166   -5.3176   22.0424 C   0  0  0  0  0  0  0  0  0  0  0  0
    3.6480   -5.5312   20.8349 C   0  0  0  0  0  0  0  0  0  0  0  0
    3.9323   -6.1384   17.4518 C   0  0  0  0  0  0  0  0  0  0  0  0
    3.4195   -6.5416   16.2238 N   0  0  0  0  0  0  0  0  0  0  0  0
    4.2878   -7.3972   15.7386 C   0  0  0  0  0  0  0  0  0  0  0  0
    4.2276   -8.1794   14.4551 C   0  0  0  0  0  0  0  0  0  0  0  0
    5.3153   -9.1257   14.0848 C   0  0  0  0  0  0  0  0  0  0  0  0
    5.4880  -10.3249   14.7985 C   0  0  0  0  0  0  0  0  0  0  0  0
    6.5122  -11.2125   14.4565 C   0  0  0  0  0  0  0  0  0  0  0  0
    7.3532  -10.9142   13.3809 C   0  0  0  0  0  0  0  0  0  0  0  0
    8.6432  -12.1053   12.9226 S   0  0  0  0  0  0  0  0  0  0  0  0
    9.6219  -11.9177   13.9886 O   0  0  0  0  0  0  0  0  0  0  0  0
    7.9214  -13.3752   12.9411 O   0  0  0  0  0  0  0  0  0  0  0  0
    9.0653  -11.6575   11.5972 O   0  5  0  0  0  0  0  0  0  0  0  0
    7.1840   -9.7386   12.6466 C   0  0  0  0  0  0  0  0  0  0  0  0
    6.1756   -8.8406   13.0090 C   0  0  0  0  0  0  0  0  0  0  0  0
    3.1560   -8.0375   13.6515 C   0  0  0  0  0  0  0  0  0  0  0  0
    2.9480   -8.7414   12.3901 C   0  0  0  0  0  0  0  0  0  0  0  0
    1.7842   -8.3421   11.8517 C   0  0  0  0  0  0  0  0  0  0  0  0
    1.1444   -7.3790   12.7519 C   0  0  0  0  0  0  0  0  0  0  0  0
    2.0373   -7.2492   13.7856 N   0  0  0  0  0  0  0  0  0  0  0  0
    5.4657   -7.6118   16.5899 C   0  0  0  0  0  0  0  0  0  0  0  0
    5.1783   -6.8540   17.6395 C   0  0  0  0  0  0  0  0  0  0  0  0
   -1.9916   -4.2670   14.1829 C   0  0  0  0  0  0  0  0  0  0  0  0
   -1.8728   -5.1559   13.2083 C   0  0  0  0  0  0  0  0  0  0  0  0
   -1.0374   -6.0988   10.3621 C   0  0  0  0  0  0  0  0  0  0  0  0
   -1.7761   -6.3665    9.2149 C   0  0  0  0  0  0  0  0  0  0  0  0
   -1.6742   -1.9002   -0.2259 C   0  0  0  0  0  0  0  0  0  0  0  0
   -1.7577   -0.3783   -0.0893 C   0  0  0  0  0  0  0  0  0  0  0  0
   -0.9947    0.0760    1.1560 C   0  0  2  0  0  0  0  0  0  0  0  0
   -1.1330    1.5207    1.3495 N   0  3  0  0  0  0  0  0  0  0  0  0
    2.2996   -0.1181    0.0103 H   0  0  0  0  0  0  0  0  0  0  0  0
    1.3222    1.3242    0.1423 H   0  0  0  0  0  0  0  0  0  0  0  0
    0.8616    0.0553   -0.9671 H   0  0  0  0  0  0  0  0  0  0  0  0
    0.9472   -0.1006    2.0008 H   0  0  0  0  0  0  0  0  0  0  0  0
    0.0548   -2.3617    1.8261 H   0  0  0  0  0  0  0  0  0  0  0  0
    1.4869   -2.2330    0.7829 H   0  0  0  0  0  0  0  0  0  0  0  0
    0.1235   -1.9838   -1.0404 H   0  0  0  0  0  0  0  0  0  0  0  0
    0.8886   -4.0443   -0.5510 H   0  0  0  0  0  0  0  0  0  0  0  0
   -0.8098   -3.9943   -1.3035 H   0  0  0  0  0  0  0  0  0  0  0  0
   -2.7031   -4.8521   -0.2615 H   0  0  0  0  0  0  0  0  0  0  0  0
   -2.4416   -3.8907    1.1739 H   0  0  0  0  0  0  0  0  0  0  0  0
   -2.5988   -5.6262    1.3015 H   0  0  0  0  0  0  0  0  0  0  0  0
   -0.9784   -6.4319   -1.0417 H   0  0  0  0  0  0  0  0  0  0  0  0
   -0.7429   -7.1282    0.5435 H   0  0  0  0  0  0  0  0  0  0  0  0
    0.6142   -6.4494   -0.3229 H   0  0  0  0  0  0  0  0  0  0  0  0
    0.1282   -5.0910    3.7954 H   0  0  0  0  0  0  0  0  0  0  0  0
   -1.9625   -6.5789    2.4241 H   0  0  0  0  0  0  0  0  0  0  0  0
   -2.0360   -5.9475    4.0611 H   0  0  0  0  0  0  0  0  0  0  0  0
   -0.1142   -8.0506    3.1393 H   0  0  0  0  0  0  0  0  0  0  0  0
   -1.6545   -8.3438    3.9947 H   0  0  0  0  0  0  0  0  0  0  0  0
    0.7551   -6.9720    5.0722 H   0  0  0  0  0  0  0  0  0  0  0  0
    0.0779   -8.5646    5.5246 H   0  0  0  0  0  0  0  0  0  0  0  0
   -1.1432   -5.9034    6.0522 H   0  0  0  0  0  0  0  0  0  0  0  0
   -0.4135   -7.0163    7.2216 H   0  0  0  0  0  0  0  0  0  0  0  0
   -2.7582   -7.7611    5.6771 H   0  0  0  0  0  0  0  0  0  0  0  0
   -2.3811   -9.6298    9.7316 H   0  0  0  0  0  0  0  0  0  0  0  0
   -1.2356   -9.1202   11.8123 H   0  0  0  0  0  0  0  0  0  0  0  0
   -3.4417   -4.1975   16.9316 H   0  0  0  0  0  0  0  0  0  0  0  0
   -5.2387   -2.6124   17.3274 H   0  0  0  0  0  0  0  0  0  0  0  0
   -2.5231    0.5800   16.8859 H   0  0  0  0  0  0  0  0  0  0  0  0
   -0.7454   -1.0018   16.3933 H   0  0  0  0  0  0  0  0  0  0  0  0
   -0.3009   -2.5639   18.9106 H   0  0  0  0  0  0  0  0  0  0  0  0
    1.9868   -3.2939   19.9284 H   0  0  0  0  0  0  0  0  0  0  0  0
    1.5032   -5.2266   16.2999 H   0  0  0  0  0  0  0  0  0  0  0  0
    5.7782   -3.9540   18.7675 H   0  0  0  0  0  0  0  0  0  0  0  0
    6.9801   -3.6430   20.8565 H   0  0  0  0  0  0  0  0  0  0  0  0
    3.9124   -5.6577   22.9290 H   0  0  0  0  0  0  0  0  0  0  0  0
    2.7553   -6.0489   20.8296 H   0  0  0  0  0  0  0  0  0  0  0  0
    4.8539  -10.5514   15.5806 H   0  0  0  0  0  0  0  0  0  0  0  0
    6.6465  -12.0826   14.9949 H   0  0  0  0  0  0  0  0  0  0  0  0
    7.7983   -9.5343   11.8429 H   0  0  0  0  0  0  0  0  0  0  0  0
    6.0613   -7.9605   12.4824 H   0  0  0  0  0  0  0  0  0  0  0  0
    3.5918   -9.4347   11.9780 H   0  0  0  0  0  0  0  0  0  0  0  0
    1.4016   -8.6624   10.9483 H   0  0  0  0  0  0  0  0  0  0  0  0
    1.8908   -6.6481   14.5514 H   0  0  0  0  0  0  0  0  0  0  0  0
    6.2974   -8.1977   16.4168 H   0  0  0  0  0  0  0  0  0  0  0  0
    5.7677   -6.7829   18.4836 H   0  0  0  0  0  0  0  0  0  0  0  0
   -2.7543   -3.5752   14.2523 H   0  0  0  0  0  0  0  0  0  0  0  0
   -2.5183   -5.3570   12.4286 H   0  0  0  0  0  0  0  0  0  0  0  0
   -0.6461   -5.1558   10.5125 H   0  0  0  0  0  0  0  0  0  0  0  0
   -2.0059   -5.6055    8.5568 H   0  0  0  0  0  0  0  0  0  0  0  0
   -2.2065   -2.3443    0.5891 H   0  0  0  0  0  0  0  0  0  0  0  0
   -2.1004   -2.1579   -1.1729 H   0  0  0  0  0  0  0  0  0  0  0  0
   -2.7833   -0.0857   -0.0032 H   0  0  0  0  0  0  0  0  0  0  0  0
   -1.3226    0.0771   -0.9543 H   0  0  0  0  0  0  0  0  0  0  0  0
   -1.4225   -0.3812    2.0237 H   0  0  0  0  0  0  0  0  0  0  0  0
   -0.7389    2.0106    0.5463 H   0  0  0  0  0  0  0  0  0  0  0  0
   -0.6358    1.7996    2.1953 H   0  0  0  0  0  0  0  0  0  0  0  0
   -2.1206    1.7584    1.4416 H   0  0  0  0  0  0  0  0  0  0  0  0
  1  2  1  0  0  0  0
  1 83  1  0  0  0  0
  1 84  1  0  0  0  0
  1 85  1  0  0  0  0
  2  3  1  0  0  0  0
  2 81  1  0  0  0  0
  2 86  1  1  0  0  0
  3  4  1  0  0  0  0
  3 87  1  0  0  0  0
  3 88  1  0  0  0  0
  4  5  1  0  0  0  0
  4 79  1  0  0  0  0
  4 89  1  6  0  0  0
  5  6  1  0  0  0  0
  5 90  1  0  0  0  0
  5 91  1  0  0  0  0
  6  7  1  0  0  0  0
  6  8  1  0  0  0  0
  6  9  1  0  0  0  0
  7 92  1  0  0  0  0
  7 93  1  0  0  0  0
  7 94  1  0  0  0  0
  8 95  1  0  0  0  0
  8 96  1  0  0  0  0
  8 97  1  0  0  0  0
  9 10  2  0  0  0  0
  9 11  1  0  0  0  0
 11 12  1  0  0  0  0
 11 98  1  0  0  0  0
 12 13  1  0  0  0  0
 12 99  1  0  0  0  0
 12100  1  0  0  0  0
 13 14  1  0  0  0  0
 13101  1  0  0  0  0
 13102  1  0  0  0  0
 14 15  1  0  0  0  0
 14103  1  0  0  0  0
 14104  1  0  0  0  0
 15 16  1  0  0  0  0
 15105  1  0  0  0  0
 15106  1  0  0  0  0
 16 17  1  0  0  0  0
 16107  1  0  0  0  0
 17 18  2  0  0  0  0
 17 19  1  0  0  0  0
 19 20  1  0  0  0  0
 19 78  2  0  0  0  0
 20 21  2  0  0  0  0
 20108  1  0  0  0  0
 21 22  1  0  0  0  0
 21109  1  0  0  0  0
 22 23  1  0  0  0  0
 22 77  2  0  0  0  0
 23 24  1  0  0  0  0
 23 71  2  0  0  0  0
 24 25  2  0  0  0  0
 24 76  1  0  0  0  0
 25 26  1  0  0  0  0
 26 27  2  0  0  0  0
 26 75  1  0  0  0  0
 27 28  1  0  0  0  0
 27 38  1  0  0  0  0
 28 29  1  0  0  0  0
 28 37  2  0  0  0  0
 29 30  2  0  0  0  0
 29110  1  0  0  0  0
 30 31  1  0  0  0  0
 30111  1  0  0  0  0
 31 32  1  0  0  0  0
 31 36  2  0  0  0  0
 32 33  2  0  0  0  0
 32 34  2  0  0  0  0
 32 35  1  0  0  0  0
 36 37  1  0  0  0  0
 36112  1  0  0  0  0
 37113  1  0  0  0  0
 38 39  2  0  0  0  0
 38 42  1  0  0  0  0
 39 40  1  0  0  0  0
 39114  1  0  0  0  0
 40 41  2  0  0  0  0
 40115  1  0  0  0  0
 41 42  1  0  0  0  0
 41 43  1  0  0  0  0
 42116  1  0  0  0  0
 43 44  1  0  0  0  0
 43 54  2  0  0  0  0
 44 45  1  0  0  0  0
 44 53  2  0  0  0  0
 45 46  2  0  0  0  0
 45117  1  0  0  0  0
 46 47  1  0  0  0  0
 46118  1  0  0  0  0
 47 48  1  0  0  0  0
 47 52  2  0  0  0  0
 48 49  2  0  0  0  0
 48 50  2  0  0  0  0
 48 51  1  0  0  0  0
 52 53  1  0  0  0  0
 52119  1  0  0  0  0
 53120  1  0  0  0  0
 54 55  1  0  0  0  0
 54 74  1  0  0  0  0
 55 56  2  0  0  0  0
 56 57  1  0  0  0  0
 56 73  1  0  0  0  0
 57 58  1  0  0  0  0
 57 68  2  0  0  0  0
 58 59  1  0  0  0  0
 58 67  2  0  0  0  0
 59 60  2  0  0  0  0
 59121  1  0  0  0  0
 60 61  1  0  0  0  0
 60122  1  0  0  0  0
 61 62  1  0  0  0  0
 61 66  2  0  0  0  0
 62 63  2  0  0  0  0
 62 64  2  0  0  0  0
 62 65  1  0  0  0  0
 66 67  1  0  0  0  0
 66123  1  0  0  0  0
 67124  1  0  0  0  0
 68 69  1  0  0  0  0
 68 72  1  0  0  0  0
 69 70  2  0  0  0  0
 69125  1  0  0  0  0
 70 71  1  0  0  0  0
 70126  1  0  0  0  0
 71 72  1  0  0  0  0
 72127  1  0  0  0  0
 73 74  2  0  0  0  0
 73128  1  0  0  0  0
 74129  1  0  0  0  0
 75 76  2  0  0  0  0
 75130  1  0  0  0  0
 76131  1  0  0  0  0
 77 78  1  0  0  0  0
 77132  1  0  0  0  0
 78133  1  0  0  0  0
 79 80  1  0  0  0  0
 79134  1  0  0  0  0
 79135  1  0  0  0  0
 80 81  1  0  0  0  0
 80136  1  0  0  0  0
 80137  1  0  0  0  0
 81 82  1  0  0  0  0
 81138  1  1  0  0  0
 82139  1  0  0  0  0
 82140  1  0  0  0  0
 82141  1  0  0  0  0
M  CHG  5   4   1  35  -1  51  -1  65  -1  82   1
M  END
$$$$
