3_1_4845
 OpenBabel04152301363D

143153  0  0  1  0  0  0  0  0999 V2000
   -8.7275    1.2558    5.6767 C   0  0  0  0  0  0  0  0  0  0  0  0
   -8.0378    1.3387    4.3466 C   0  0  0  0  0  0  0  0  0  0  0  0
   -8.6404    0.8182    3.1981 C   0  0  0  0  0  0  0  0  0  0  0  0
   -7.9473    0.7983    1.9857 C   0  0  0  0  0  0  0  0  0  0  0  0
   -6.6235    1.2605    1.9151 C   0  0  0  0  0  0  0  0  0  0  0  0
   -5.7724    1.0165    0.6857 C   0  0  0  0  0  0  0  0  0  0  0  0
   -5.7562   -0.4462    0.1471 C   0  0  2  0  0  0  0  0  0  0  0  0
   -4.6869   -1.3028    0.8871 C   0  0  0  0  0  0  0  0  0  0  0  0
   -3.6226   -1.6117    0.3354 O   0  0  0  0  0  0  0  0  0  0  0  0
   -4.8824   -1.8186    2.1343 N   0  0  0  0  0  0  0  0  0  0  0  0
   -5.9937   -1.6288    3.0380 C   0  0  0  0  0  0  0  0  0  0  0  0
   -6.0319   -2.5524    4.2542 C   0  0  0  0  0  0  0  0  0  0  0  0
   -4.8553   -2.4028    5.2222 C   0  0  0  0  0  0  0  0  0  0  0  0
   -4.6669   -1.0098    5.8322 C   0  0  0  0  0  0  0  0  0  0  0  0
   -5.4674   -0.8149    7.0364 N   0  0  0  0  0  0  0  0  0  0  0  0
   -4.9530   -0.6810    8.3228 C   0  0  0  0  0  0  0  0  0  0  0  0
   -5.3830   -1.2540    9.2914 O   0  0  0  0  0  0  0  0  0  0  0  0
   -3.8179    0.2641    8.4127 C   0  0  0  0  0  0  0  0  0  0  0  0
   -4.0772    1.6382    8.3798 C   0  0  0  0  0  0  0  0  0  0  0  0
   -3.0964    2.5053    7.8977 C   0  0  0  0  0  0  0  0  0  0  0  0
   -1.9171    1.9782    7.3671 C   0  0  0  0  0  0  0  0  0  0  0  0
   -0.9819    2.7223    6.5040 C   0  0  0  0  0  0  0  0  0  0  0  0
    0.4800    2.7563    6.8193 C   0  0  0  0  0  0  0  0  0  0  0  0
    1.3566    3.4892    6.2106 N   0  0  0  0  0  0  0  0  0  0  0  0
    2.6093    3.0976    6.6287 C   0  0  0  0  0  0  0  0  0  0  0  0
    3.7136    3.4786    5.9231 C   0  0  0  0  0  0  0  0  0  0  0  0
    5.0518    2.7603    5.9909 C   0  0  0  0  0  0  0  0  0  0  0  0
    5.9762    2.8926    4.9323 C   0  0  0  0  0  0  0  0  0  0  0  0
    7.1527    2.1236    4.8614 C   0  0  0  0  0  0  0  0  0  0  0  0
    7.4394    1.2031    5.8656 C   0  0  0  0  0  0  0  0  0  0  0  0
    8.9005    0.1425    5.7280 S   0  0  0  0  0  0  0  0  0  0  0  0
    8.6947   -0.5117    4.4383 O   0  0  0  0  0  0  0  0  0  0  0  0
    9.9949    1.1066    5.7811 O   0  0  0  0  0  0  0  0  0  0  0  0
    8.7969   -0.7421    6.8879 O   0  5  0  0  0  0  0  0  0  0  0  0
    6.5907    1.0875    6.9552 C   0  0  0  0  0  0  0  0  0  0  0  0
    5.4327    1.8755    7.0173 C   0  0  0  0  0  0  0  0  0  0  0  0
    3.4222    4.5508    4.9690 C   0  0  0  0  0  0  0  0  0  0  0  0
    3.3935    4.6868    3.5913 C   0  0  0  0  0  0  0  0  0  0  0  0
    2.8402    5.9672    3.2806 C   0  0  0  0  0  0  0  0  0  0  0  0
    2.5394    6.6044    4.4691 C   0  0  0  0  0  0  0  0  0  0  0  0
    2.8926    5.7287    5.4731 N   0  0  0  0  0  0  0  0  0  0  0  0
    1.9499    7.8734    4.8463 C   0  0  0  0  0  0  0  0  0  0  0  0
    2.8205    8.9997    5.3187 C   0  0  0  0  0  0  0  0  0  0  0  0
    2.6475   10.3116    4.8452 C   0  0  0  0  0  0  0  0  0  0  0  0
    3.4983   11.3443    5.2584 C   0  0  0  0  0  0  0  0  0  0  0  0
    4.5509   11.0681    6.1338 C   0  0  0  0  0  0  0  0  0  0  0  0
    5.6729   12.4038    6.6246 S   0  0  0  0  0  0  0  0  0  0  0  0
    5.7936   13.1937    5.4009 O   0  0  0  0  0  0  0  0  0  0  0  0
    4.9282   13.0390    7.7084 O   0  0  0  0  0  0  0  0  0  0  0  0
    6.8890   11.7022    7.0271 O   0  5  0  0  0  0  0  0  0  0  0  0
    4.7715    9.7702    6.5859 C   0  0  0  0  0  0  0  0  0  0  0  0
    3.9071    8.7487    6.1817 C   0  0  0  0  0  0  0  0  0  0  0  0
    0.5909    7.9596    4.8377 C   0  0  0  0  0  0  0  0  0  0  0  0
   -0.2293    6.9441    4.4199 N   0  0  0  0  0  0  0  0  0  0  0  0
   -1.4634    7.2521    4.7088 C   0  0  0  0  0  0  0  0  0  0  0  0
   -2.6441    6.2993    4.6311 C   0  0  0  0  0  0  0  0  0  0  0  0
   -3.8430    6.4017    5.5058 C   0  0  0  0  0  0  0  0  0  0  0  0
   -5.0964    6.0626    4.9564 C   0  0  0  0  0  0  0  0  0  0  0  0
   -6.1386    5.6429    5.7839 C   0  0  0  0  0  0  0  0  0  0  0  0
   -5.9336    5.5884    7.1640 C   0  0  0  0  0  0  0  0  0  0  0  0
   -7.1400    4.6791    8.1698 S   0  0  0  0  0  0  0  0  0  0  0  0
   -8.3773    5.4091    7.9200 O   0  0  0  0  0  0  0  0  0  0  0  0
   -7.0594    3.3440    7.5797 O   0  0  0  0  0  0  0  0  0  0  0  0
   -6.6032    4.7813    9.5227 O   0  5  0  0  0  0  0  0  0  0  0  0
   -4.7477    6.0577    7.7347 C   0  0  0  0  0  0  0  0  0  0  0  0
   -3.6997    6.4642    6.9029 C   0  0  0  0  0  0  0  0  0  0  0  0
   -2.3167    5.0254    4.2670 C   0  0  0  0  0  0  0  0  0  0  0  0
   -1.1362    4.6377    3.5201 C   0  0  0  0  0  0  0  0  0  0  0  0
   -0.5418    3.6515    4.2050 C   0  0  0  0  0  0  0  0  0  0  0  0
   -1.3914    3.2867    5.3407 C   0  0  0  0  0  0  0  0  0  0  0  0
   -2.6180    3.8800    5.0289 N   0  0  0  0  0  0  0  0  0  0  0  0
   -1.5853    8.6057    5.2609 C   0  0  0  0  0  0  0  0  0  0  0  0
   -0.3019    8.9920    5.3269 C   0  0  0  0  0  0  0  0  0  0  0  0
    2.3652    2.2239    7.7493 C   0  0  0  0  0  0  0  0  0  0  0  0
    1.0616    2.0035    7.9282 C   0  0  0  0  0  0  0  0  0  0  0  0
   -1.6458    0.6038    7.5298 C   0  0  0  0  0  0  0  0  0  0  0  0
   -2.5605   -0.2464    8.1260 C   0  0  0  0  0  0  0  0  0  0  0  0
   -5.4449   -0.5171   -1.4111 C   0  0  2  0  0  0  0  0  0  0  0  0
   -5.9975    0.6148   -2.3027 C   0  0  0  0  0  0  0  0  0  0  0  0
   -7.5139    0.5661   -2.4461 C   0  0  0  0  0  0  0  0  0  0  0  0
   -7.9562   -0.7661   -3.0411 C   0  0  0  0  0  0  0  0  0  0  0  0
   -7.4101   -1.9485   -2.2484 C   0  0  0  0  0  0  0  0  0  0  0  0
   -5.8923   -1.8650   -2.0444 C   0  0  2  0  0  0  0  0  0  0  0  0
   -5.4875   -2.9914   -1.2786 O   0  0  0  0  0  0  0  0  0  0  0  0
   -6.0804    1.9171    3.0296 C   0  0  0  0  0  0  0  0  0  0  0  0
   -6.7841    1.9515    4.2375 C   0  0  0  0  0  0  0  0  0  0  0  0
   -9.6670    0.7570    5.5608 H   0  0  0  0  0  0  0  0  0  0  0  0
   -8.8921    2.2430    6.0553 H   0  0  0  0  0  0  0  0  0  0  0  0
   -8.1152    0.7083    6.3625 H   0  0  0  0  0  0  0  0  0  0  0  0
   -9.6021    0.4468    3.2461 H   0  0  0  0  0  0  0  0  0  0  0  0
   -8.4115    0.4414    1.1359 H   0  0  0  0  0  0  0  0  0  0  0  0
   -4.7656    1.2888    0.9248 H   0  0  0  0  0  0  0  0  0  0  0  0
   -6.2116    1.6061   -0.0917 H   0  0  0  0  0  0  0  0  0  0  0  0
   -6.7377   -0.8330    0.3259 H   0  0  0  0  0  0  0  0  0  0  0  0
   -4.1637   -2.4038    2.4663 H   0  0  0  0  0  0  0  0  0  0  0  0
   -6.8963   -1.7799    2.4835 H   0  0  0  0  0  0  0  0  0  0  0  0
   -5.8816   -0.6395    3.4300 H   0  0  0  0  0  0  0  0  0  0  0  0
   -6.0450   -3.5628    3.9025 H   0  0  0  0  0  0  0  0  0  0  0  0
   -6.9075   -2.2812    4.8062 H   0  0  0  0  0  0  0  0  0  0  0  0
   -3.9601   -2.6529    4.6921 H   0  0  0  0  0  0  0  0  0  0  0  0
   -5.0704   -3.0534    6.0440 H   0  0  0  0  0  0  0  0  0  0  0  0
   -4.9527   -0.2762    5.1076 H   0  0  0  0  0  0  0  0  0  0  0  0
   -3.6373   -0.9112    6.1064 H   0  0  0  0  0  0  0  0  0  0  0  0
   -6.4454   -0.7751    6.9311 H   0  0  0  0  0  0  0  0  0  0  0  0
   -4.9836    2.0063    8.7084 H   0  0  0  0  0  0  0  0  0  0  0  0
   -3.2410    3.5265    7.9329 H   0  0  0  0  0  0  0  0  0  0  0  0
    5.7826    3.5769    4.1845 H   0  0  0  0  0  0  0  0  0  0  0  0
    7.8011    2.2417    4.0672 H   0  0  0  0  0  0  0  0  0  0  0  0
    6.8097    0.4256    7.7160 H   0  0  0  0  0  0  0  0  0  0  0  0
    4.8323    1.8036    7.8536 H   0  0  0  0  0  0  0  0  0  0  0  0
    3.7160    3.9848    2.9071 H   0  0  0  0  0  0  0  0  0  0  0  0
    2.6913    6.3493    2.3336 H   0  0  0  0  0  0  0  0  0  0  0  0
    2.7821    5.9170    6.4331 H   0  0  0  0  0  0  0  0  0  0  0  0
    1.8826   10.5168    4.1836 H   0  0  0  0  0  0  0  0  0  0  0  0
    3.3480   12.3065    4.9171 H   0  0  0  0  0  0  0  0  0  0  0  0
    5.5649    9.5643    7.2129 H   0  0  0  0  0  0  0  0  0  0  0  0
    4.0680    7.7881    6.5230 H   0  0  0  0  0  0  0  0  0  0  0  0
   -5.2438    6.1251    3.9369 H   0  0  0  0  0  0  0  0  0  0  0  0
   -7.0502    5.3759    5.3806 H   0  0  0  0  0  0  0  0  0  0  0  0
   -4.6462    6.1039    8.7607 H   0  0  0  0  0  0  0  0  0  0  0  0
   -2.8195    6.8107    7.3154 H   0  0  0  0  0  0  0  0  0  0  0  0
   -0.8141    5.0449    2.6282 H   0  0  0  0  0  0  0  0  0  0  0  0
    0.3658    3.2198    3.9707 H   0  0  0  0  0  0  0  0  0  0  0  0
   -3.5123    3.5614    5.2894 H   0  0  0  0  0  0  0  0  0  0  0  0
   -2.4359    9.1252    5.5286 H   0  0  0  0  0  0  0  0  0  0  0  0
    0.0106    9.9094    5.6816 H   0  0  0  0  0  0  0  0  0  0  0  0
    3.1077    1.8187    8.3405 H   0  0  0  0  0  0  0  0  0  0  0  0
    0.5886    1.4476    8.6578 H   0  0  0  0  0  0  0  0  0  0  0  0
   -0.7458    0.2240    7.1971 H   0  0  0  0  0  0  0  0  0  0  0  0
   -2.3162   -1.2239    8.3490 H   0  0  0  0  0  0  0  0  0  0  0  0
   -4.3808   -0.4049   -1.4043 H   0  0  0  0  0  0  0  0  0  0  0  0
   -5.5592    0.5291   -3.2750 H   0  0  0  0  0  0  0  0  0  0  0  0
   -5.7476    1.5444   -1.8354 H   0  0  0  0  0  0  0  0  0  0  0  0
   -7.8317    1.3606   -3.0886 H   0  0  0  0  0  0  0  0  0  0  0  0
   -7.9548    0.6735   -1.4771 H   0  0  0  0  0  0  0  0  0  0  0  0
   -7.6011   -0.8306   -4.0484 H   0  0  0  0  0  0  0  0  0  0  0  0
   -9.0249   -0.8075   -3.0070 H   0  0  0  0  0  0  0  0  0  0  0  0
   -7.6366   -2.8507   -2.7773 H   0  0  0  0  0  0  0  0  0  0  0  0
   -7.8703   -1.9340   -1.2825 H   0  0  0  0  0  0  0  0  0  0  0  0
   -5.4042   -1.8880   -2.9963 H   0  0  0  0  0  0  0  0  0  0  0  0
   -5.9296   -2.9713   -0.4154 H   0  0  0  0  0  0  0  0  0  0  0  0
   -5.1589    2.3761    2.9578 H   0  0  0  0  0  0  0  0  0  0  0  0
   -6.3761    2.4322    5.0545 H   0  0  0  0  0  0  0  0  0  0  0  0
  1  2  1  0  0  0  0
  1 87  1  0  0  0  0
  1 88  1  0  0  0  0
  1 89  1  0  0  0  0
  2  3  1  0  0  0  0
  2 86  2  0  0  0  0
  3  4  2  0  0  0  0
  3 90  1  0  0  0  0
  4  5  1  0  0  0  0
  4 91  1  0  0  0  0
  5  6  1  0  0  0  0
  5 85  2  0  0  0  0
  6 92  1  0  0  0  0
  6 93  1  0  0  0  0
  7  8  1  0  0  0  0
  7  6  1  0  0  0  0
  7 94  1  1  0  0  0
  8  9  2  0  0  0  0
  8 10  1  0  0  0  0
 10 11  1  0  0  0  0
 10 95  1  0  0  0  0
 11 12  1  0  0  0  0
 11 96  1  0  0  0  0
 11 97  1  0  0  0  0
 12 13  1  0  0  0  0
 12 98  1  0  0  0  0
 12 99  1  0  0  0  0
 13 14  1  0  0  0  0
 13100  1  0  0  0  0
 13101  1  0  0  0  0
 14 15  1  0  0  0  0
 14102  1  0  0  0  0
 14103  1  0  0  0  0
 15 16  1  0  0  0  0
 15104  1  0  0  0  0
 16 17  2  0  0  0  0
 16 18  1  0  0  0  0
 18 19  1  0  0  0  0
 18 77  2  0  0  0  0
 19 20  2  0  0  0  0
 19105  1  0  0  0  0
 20 21  1  0  0  0  0
 20106  1  0  0  0  0
 21 22  1  0  0  0  0
 21 76  2  0  0  0  0
 22 23  1  0  0  0  0
 22 70  2  0  0  0  0
 23 24  2  0  0  0  0
 23 75  1  0  0  0  0
 24 25  1  0  0  0  0
 25 26  2  0  0  0  0
 25 74  1  0  0  0  0
 26 27  1  0  0  0  0
 26 37  1  0  0  0  0
 27 28  1  0  0  0  0
 27 36  2  0  0  0  0
 28 29  2  0  0  0  0
 28107  1  0  0  0  0
 29 30  1  0  0  0  0
 29108  1  0  0  0  0
 30 31  1  0  0  0  0
 30 35  2  0  0  0  0
 31 32  2  0  0  0  0
 31 33  2  0  0  0  0
 31 34  1  0  0  0  0
 35 36  1  0  0  0  0
 35109  1  0  0  0  0
 36110  1  0  0  0  0
 37 38  2  0  0  0  0
 37 41  1  0  0  0  0
 38 39  1  0  0  0  0
 38111  1  0  0  0  0
 39 40  2  0  0  0  0
 39112  1  0  0  0  0
 40 41  1  0  0  0  0
 40 42  1  0  0  0  0
 41113  1  0  0  0  0
 42 43  1  0  0  0  0
 42 53  2  0  0  0  0
 43 44  1  0  0  0  0
 43 52  2  0  0  0  0
 44 45  2  0  0  0  0
 44114  1  0  0  0  0
 45 46  1  0  0  0  0
 45115  1  0  0  0  0
 46 47  1  0  0  0  0
 46 51  2  0  0  0  0
 47 48  2  0  0  0  0
 47 49  2  0  0  0  0
 47 50  1  0  0  0  0
 51 52  1  0  0  0  0
 51116  1  0  0  0  0
 52117  1  0  0  0  0
 53 54  1  0  0  0  0
 53 73  1  0  0  0  0
 54 55  2  0  0  0  0
 55 56  1  0  0  0  0
 55 72  1  0  0  0  0
 56 57  1  0  0  0  0
 56 67  2  0  0  0  0
 57 58  1  0  0  0  0
 57 66  2  0  0  0  0
 58 59  2  0  0  0  0
 58118  1  0  0  0  0
 59 60  1  0  0  0  0
 59119  1  0  0  0  0
 60 61  1  0  0  0  0
 60 65  2  0  0  0  0
 61 62  2  0  0  0  0
 61 63  2  0  0  0  0
 61 64  1  0  0  0  0
 65 66  1  0  0  0  0
 65120  1  0  0  0  0
 66121  1  0  0  0  0
 67 68  1  0  0  0  0
 67 71  1  0  0  0  0
 68 69  2  0  0  0  0
 68122  1  0  0  0  0
 69 70  1  0  0  0  0
 69123  1  0  0  0  0
 70 71  1  0  0  0  0
 71124  1  0  0  0  0
 72 73  2  0  0  0  0
 72125  1  0  0  0  0
 73126  1  0  0  0  0
 74 75  2  0  0  0  0
 74127  1  0  0  0  0
 75128  1  0  0  0  0
 76 77  1  0  0  0  0
 76129  1  0  0  0  0
 77130  1  0  0  0  0
 78 79  1  0  0  0  0
 78 83  1  0  0  0  0
 78  7  1  0  0  0  0
 78131  1  6  0  0  0
 79 80  1  0  0  0  0
 79132  1  0  0  0  0
 79133  1  0  0  0  0
 80 81  1  0  0  0  0
 80134  1  0  0  0  0
 80135  1  0  0  0  0
 81 82  1  0  0  0  0
 81136  1  0  0  0  0
 81137  1  0  0  0  0
 82 83  1  0  0  0  0
 82138  1  0  0  0  0
 82139  1  0  0  0  0
 83 84  1  0  0  0  0
 83140  1  6  0  0  0
 84141  1  0  0  0  0
 85 86  1  0  0  0  0
 85142  1  0  0  0  0
 86143  1  0  0  0  0
M  CHG  3  34  -1  50  -1  64  -1
M  END
$$$$
