3_1_6379
 OpenBabel04152301373D

136146  0  0  1  0  0  0  0  0999 V2000
   -1.4936   -1.6320    0.0267 C   0  0  0  0  0  0  0  0  0  0  0  0
   -0.3137   -0.7303   -0.0166 C   0  0  0  0  0  0  0  0  0  0  0  0
    0.9422   -1.1298    0.0320 N   0  0  0  0  0  0  0  0  0  0  0  0
    1.7133    0.0167   -0.0453 C   0  0  0  0  0  0  0  0  0  0  0  0
    3.4569    0.0105    0.0319 S   0  0  0  0  0  0  0  0  0  0  0  0
    3.7953   -0.6613    1.2668 O   0  0  0  0  0  0  0  0  0  0  0  0
    3.8951   -0.4786   -1.2581 O   0  0  0  0  0  0  0  0  0  0  0  0
    4.0334    1.5937    0.1452 N   0  0  0  0  0  0  0  0  0  0  0  0
    3.7004    2.3500    1.3485 C   0  0  1  0  0  0  0  0  0  0  0  0
    4.8218    2.3137    2.3257 C   0  0  0  0  0  0  0  0  0  0  0  0
    5.1456    3.5383    2.7559 C   0  0  0  0  0  0  0  0  0  0  0  0
    4.3275    4.6071    2.0935 C   0  0  2  0  0  0  0  0  0  0  0  0
    3.3129    5.2785    3.0235 C   0  0  0  0  0  0  0  0  0  0  0  0
    3.0646    4.8684    4.1564 O   0  0  0  0  0  0  0  0  0  0  0  0
    2.6434    6.3834    2.5705 N   0  0  0  0  0  0  0  0  0  0  0  0
    2.7616    7.0744    1.2981 C   0  0  0  0  0  0  0  0  0  0  0  0
    1.4766    6.9953    0.4740 C   0  0  0  0  0  0  0  0  0  0  0  0
    0.2591    7.6802    1.1002 C   0  0  0  0  0  0  0  0  0  0  0  0
    0.4364    9.1579    1.4357 C   0  0  0  0  0  0  0  0  0  0  0  0
    0.7385    9.9736    0.2706 N   0  0  0  0  0  0  0  0  0  0  0  0
    0.2320   11.2037   -0.0789 C   0  0  0  0  0  0  0  0  0  0  0  0
    0.5118   11.6890   -1.1711 O   0  0  0  0  0  0  0  0  0  0  0  0
   -0.6748   11.9209    0.8452 C   0  0  0  0  0  0  0  0  0  0  0  0
   -1.8494   12.4833    0.3370 C   0  0  0  0  0  0  0  0  0  0  0  0
   -2.7577   13.0966    1.2044 C   0  0  0  0  0  0  0  0  0  0  0  0
   -2.5114   13.1232    2.5863 C   0  0  0  0  0  0  0  0  0  0  0  0
   -3.4924   13.7025    3.5394 C   0  0  0  0  0  0  0  0  0  0  0  0
   -3.1340   14.9232    4.3420 C   0  0  0  0  0  0  0  0  0  0  0  0
   -3.8117   15.5140    5.2924 N   0  0  0  0  0  0  0  0  0  0  0  0
   -3.0102   16.5602    5.7335 C   0  0  0  0  0  0  0  0  0  0  0  0
   -3.2771   17.4972    6.6750 C   0  0  0  0  0  0  0  0  0  0  0  0
   -2.2048   18.5161    6.9537 C   0  0  0  0  0  0  0  0  0  0  0  0
   -1.8994   19.5209    6.0176 C   0  0  0  0  0  0  0  0  0  0  0  0
   -0.8700   20.4314    6.2681 C   0  0  0  0  0  0  0  0  0  0  0  0
   -0.1628   20.3588    7.4717 C   0  0  0  0  0  0  0  0  0  0  0  0
    1.1746   21.5469    7.7710 S   0  0  0  0  0  0  0  0  0  0  0  0
    2.2479   21.0032    6.9422 O   0  0  0  0  0  0  0  0  0  0  0  0
    0.5992   22.8060    7.3052 O   0  0  0  0  0  0  0  0  0  0  0  0
    1.3960   21.4623    9.2123 O   0  5  0  0  0  0  0  0  0  0  0  0
   -0.4864   19.4010    8.4354 C   0  0  0  0  0  0  0  0  0  0  0  0
   -1.4992   18.4749    8.1696 C   0  0  0  0  0  0  0  0  0  0  0  0
   -4.5052   17.5690    7.4200 C   0  0  0  0  0  0  0  0  0  0  0  0
   -4.8878   18.5085    8.3618 C   0  0  0  0  0  0  0  0  0  0  0  0
   -6.1534   18.1548    8.8429 C   0  0  0  0  0  0  0  0  0  0  0  0
   -6.5767   17.0209    8.1681 C   0  0  0  0  0  0  0  0  0  0  0  0
   -5.5527   16.6677    7.3060 N   0  0  0  0  0  0  0  0  0  0  0  0
   -7.8242   16.3124    8.3021 C   0  0  0  0  0  0  0  0  0  0  0  0
   -8.8414   16.8634    9.2633 C   0  0  0  0  0  0  0  0  0  0  0  0
   -9.0855   16.2422   10.5002 C   0  0  0  0  0  0  0  0  0  0  0  0
  -10.0089   16.7910   11.3944 C   0  0  0  0  0  0  0  0  0  0  0  0
  -10.6743   17.9753   11.0611 C   0  0  0  0  0  0  0  0  0  0  0  0
  -11.8300   18.6981   12.2583 S   0  0  0  0  0  0  0  0  0  0  0  0
  -13.0009   17.8393   12.1059 O   0  0  0  0  0  0  0  0  0  0  0  0
  -11.1113   18.5626   13.5231 O   0  0  0  0  0  0  0  0  0  0  0  0
  -11.9982   20.0719   11.7896 O   0  5  0  0  0  0  0  0  0  0  0  0
  -10.4261   18.6181    9.8465 C   0  0  0  0  0  0  0  0  0  0  0  0
   -9.5189   18.0549    8.9459 C   0  0  0  0  0  0  0  0  0  0  0  0
   -8.1629   15.2003    7.6050 C   0  0  0  0  0  0  0  0  0  0  0  0
   -7.4305   14.5178    6.6402 N   0  0  0  0  0  0  0  0  0  0  0  0
   -8.1843   13.5115    6.2671 C   0  0  0  0  0  0  0  0  0  0  0  0
   -7.9076   12.4613    5.2279 C   0  0  0  0  0  0  0  0  0  0  0  0
   -8.8993   11.3902    4.9433 C   0  0  0  0  0  0  0  0  0  0  0  0
  -10.0796   11.6873    4.2400 C   0  0  0  0  0  0  0  0  0  0  0  0
  -11.0039   10.6796    3.9511 C   0  0  0  0  0  0  0  0  0  0  0  0
  -10.7403    9.3664    4.3504 C   0  0  0  0  0  0  0  0  0  0  0  0
  -11.9176    8.0603    3.9013 S   0  0  0  0  0  0  0  0  0  0  0  0
  -12.9926    8.2768    4.8638 O   0  0  0  0  0  0  0  0  0  0  0  0
  -12.2351    8.3833    2.5124 O   0  0  0  0  0  0  0  0  0  0  0  0
  -11.1474    6.8318    4.0844 O   0  5  0  0  0  0  0  0  0  0  0  0
   -9.5678    9.0508    5.0404 C   0  0  0  0  0  0  0  0  0  0  0  0
   -8.6561   10.0651    5.3470 C   0  0  0  0  0  0  0  0  0  0  0  0
   -6.7552   12.5069    4.5317 C   0  0  0  0  0  0  0  0  0  0  0  0
   -6.3570   11.5558    3.4983 C   0  0  0  0  0  0  0  0  0  0  0  0
   -5.1323   11.8793    3.0517 C   0  0  0  0  0  0  0  0  0  0  0  0
   -4.6744   13.0875    3.7418 C   0  0  0  0  0  0  0  0  0  0  0  0
   -5.7033   13.3895    4.5989 N   0  0  0  0  0  0  0  0  0  0  0  0
   -9.4707   13.4249    6.9723 C   0  0  0  0  0  0  0  0  0  0  0  0
   -9.4209   14.4968    7.7524 C   0  0  0  0  0  0  0  0  0  0  0  0
   -1.7800   16.4984    4.9735 C   0  0  0  0  0  0  0  0  0  0  0  0
   -1.8315   15.5450    4.0547 C   0  0  0  0  0  0  0  0  0  0  0  0
   -1.3101   12.5882    3.0769 C   0  0  0  0  0  0  0  0  0  0  0  0
   -0.3758   12.0328    2.2057 C   0  0  0  0  0  0  0  0  0  0  0  0
    3.6214    3.8368    0.9721 C   0  0  0  0  0  0  0  0  0  0  0  0
    0.8989    1.1248   -0.1713 C   0  0  0  0  0  0  0  0  0  0  0  0
   -0.3795    0.6408   -0.1098 N   0  0  0  0  0  0  0  0  0  0  0  0
   -1.5768    1.4478   -0.1130 C   0  0  0  0  0  0  0  0  0  0  0  0
   -1.1640   -2.6474    0.0998 H   0  0  0  0  0  0  0  0  0  0  0  0
   -2.0705   -1.5077   -0.8659 H   0  0  0  0  0  0  0  0  0  0  0  0
   -2.0961   -1.3904    0.8773 H   0  0  0  0  0  0  0  0  0  0  0  0
    3.6635    2.1109   -0.6524 H   0  0  0  0  0  0  0  0  0  0  0  0
    2.7980    1.9372    1.7487 H   0  0  0  0  0  0  0  0  0  0  0  0
    5.2927    1.4488    2.6342 H   0  0  0  0  0  0  0  0  0  0  0  0
    5.8743    3.7261    3.4621 H   0  0  0  0  0  0  0  0  0  0  0  0
    4.9345    5.4228    1.7602 H   0  0  0  0  0  0  0  0  0  0  0  0
    1.9871    6.7647    3.1975 H   0  0  0  0  0  0  0  0  0  0  0  0
    3.5577    6.6302    0.7379 H   0  0  0  0  0  0  0  0  0  0  0  0
    2.9565    8.1064    1.5027 H   0  0  0  0  0  0  0  0  0  0  0  0
    1.2381    5.9621    0.3305 H   0  0  0  0  0  0  0  0  0  0  0  0
    1.6755    7.5180   -0.4382 H   0  0  0  0  0  0  0  0  0  0  0  0
    0.0196    7.1631    2.0058 H   0  0  0  0  0  0  0  0  0  0  0  0
   -0.5138    7.6376    0.3615 H   0  0  0  0  0  0  0  0  0  0  0  0
    1.2391    9.2543    2.1366 H   0  0  0  0  0  0  0  0  0  0  0  0
   -0.4909    9.5076    1.8391 H   0  0  0  0  0  0  0  0  0  0  0  0
    1.3967    9.5927   -0.3547 H   0  0  0  0  0  0  0  0  0  0  0  0
   -2.0453   12.4458   -0.6755 H   0  0  0  0  0  0  0  0  0  0  0  0
   -3.6138   13.5321    0.8271 H   0  0  0  0  0  0  0  0  0  0  0  0
   -2.4392   19.5857    5.1404 H   0  0  0  0  0  0  0  0  0  0  0  0
   -0.6332   21.1529    5.5692 H   0  0  0  0  0  0  0  0  0  0  0  0
    0.0177   19.3772    9.3356 H   0  0  0  0  0  0  0  0  0  0  0  0
   -1.7311   17.7548    8.8716 H   0  0  0  0  0  0  0  0  0  0  0  0
   -4.3352   19.3282    8.6580 H   0  0  0  0  0  0  0  0  0  0  0  0
   -6.6817   18.6537    9.5757 H   0  0  0  0  0  0  0  0  0  0  0  0
   -5.5662   15.8910    6.7011 H   0  0  0  0  0  0  0  0  0  0  0  0
   -8.5808   15.3772   10.7492 H   0  0  0  0  0  0  0  0  0  0  0  0
  -10.1987   16.3251   12.2955 H   0  0  0  0  0  0  0  0  0  0  0  0
  -10.9084   19.5010    9.6164 H   0  0  0  0  0  0  0  0  0  0  0  0
   -9.3441   18.5169    8.0398 H   0  0  0  0  0  0  0  0  0  0  0  0
  -10.2648   12.6557    3.9351 H   0  0  0  0  0  0  0  0  0  0  0  0
  -11.8756   10.9037    3.4461 H   0  0  0  0  0  0  0  0  0  0  0  0
   -9.3760    8.0766    5.3217 H   0  0  0  0  0  0  0  0  0  0  0  0
   -7.7977    9.8398    5.8738 H   0  0  0  0  0  0  0  0  0  0  0  0
   -6.9255   10.7619    3.1643 H   0  0  0  0  0  0  0  0  0  0  0  0
   -4.5993   11.3598    2.3368 H   0  0  0  0  0  0  0  0  0  0  0  0
   -5.6892   14.1653    5.2048 H   0  0  0  0  0  0  0  0  0  0  0  0
  -10.2163   12.7169    6.8840 H   0  0  0  0  0  0  0  0  0  0  0  0
  -10.1817   14.7921    8.3841 H   0  0  0  0  0  0  0  0  0  0  0  0
   -0.9681   17.1166    5.1272 H   0  0  0  0  0  0  0  0  0  0  0  0
   -1.1398   15.3022    3.3283 H   0  0  0  0  0  0  0  0  0  0  0  0
   -1.1176   12.6064    4.0906 H   0  0  0  0  0  0  0  0  0  0  0  0
    0.5347   11.7048    2.5640 H   0  0  0  0  0  0  0  0  0  0  0  0
    2.5996    4.1456    0.8979 H   0  0  0  0  0  0  0  0  0  0  0  0
    4.0836    4.0215    0.0249 H   0  0  0  0  0  0  0  0  0  0  0  0
    1.1918    2.1076   -0.2871 H   0  0  0  0  0  0  0  0  0  0  0  0
   -2.4356    0.8120   -0.0567 H   0  0  0  0  0  0  0  0  0  0  0  0
   -1.6171    2.0226   -1.0146 H   0  0  0  0  0  0  0  0  0  0  0  0
   -1.5650    2.1068    0.7299 H   0  0  0  0  0  0  0  0  0  0  0  0
  1  2  1  0  0  0  0
  1 87  1  0  0  0  0
  1 88  1  0  0  0  0
  1 89  1  0  0  0  0
  2  3  2  0  0  0  0
  2 85  1  0  0  0  0
  3  4  1  0  0  0  0
  4  5  1  0  0  0  0
  4 84  2  0  0  0  0
  5  6  2  0  0  0  0
  5  7  2  0  0  0  0
  5  8  1  0  0  0  0
  8  9  1  0  0  0  0
  8 90  1  0  0  0  0
  9 10  1  0  0  0  0
  9 83  1  0  0  0  0
  9 91  1  1  0  0  0
 10 11  2  0  0  0  0
 10 92  1  0  0  0  0
 11 12  1  0  0  0  0
 11 93  1  0  0  0  0
 12 83  1  0  0  0  0
 12 13  1  0  0  0  0
 12 94  1  6  0  0  0
 13 14  2  0  0  0  0
 13 15  1  0  0  0  0
 15 16  1  0  0  0  0
 15 95  1  0  0  0  0
 16 17  1  0  0  0  0
 16 96  1  0  0  0  0
 16 97  1  0  0  0  0
 17 18  1  0  0  0  0
 17 98  1  0  0  0  0
 17 99  1  0  0  0  0
 18 19  1  0  0  0  0
 18100  1  0  0  0  0
 18101  1  0  0  0  0
 19 20  1  0  0  0  0
 19102  1  0  0  0  0
 19103  1  0  0  0  0
 20 21  1  0  0  0  0
 20104  1  0  0  0  0
 21 22  2  0  0  0  0
 21 23  1  0  0  0  0
 23 24  1  0  0  0  0
 23 82  2  0  0  0  0
 24 25  2  0  0  0  0
 24105  1  0  0  0  0
 25 26  1  0  0  0  0
 25106  1  0  0  0  0
 26 27  1  0  0  0  0
 26 81  2  0  0  0  0
 27 28  1  0  0  0  0
 27 75  2  0  0  0  0
 28 29  2  0  0  0  0
 28 80  1  0  0  0  0
 29 30  1  0  0  0  0
 30 31  2  0  0  0  0
 30 79  1  0  0  0  0
 31 32  1  0  0  0  0
 31 42  1  0  0  0  0
 32 33  1  0  0  0  0
 32 41  2  0  0  0  0
 33 34  2  0  0  0  0
 33107  1  0  0  0  0
 34 35  1  0  0  0  0
 34108  1  0  0  0  0
 35 36  1  0  0  0  0
 35 40  2  0  0  0  0
 36 37  2  0  0  0  0
 36 38  2  0  0  0  0
 36 39  1  0  0  0  0
 40 41  1  0  0  0  0
 40109  1  0  0  0  0
 41110  1  0  0  0  0
 42 43  2  0  0  0  0
 42 46  1  0  0  0  0
 43 44  1  0  0  0  0
 43111  1  0  0  0  0
 44 45  2  0  0  0  0
 44112  1  0  0  0  0
 45 46  1  0  0  0  0
 45 47  1  0  0  0  0
 46113  1  0  0  0  0
 47 48  1  0  0  0  0
 47 58  2  0  0  0  0
 48 49  1  0  0  0  0
 48 57  2  0  0  0  0
 49 50  2  0  0  0  0
 49114  1  0  0  0  0
 50 51  1  0  0  0  0
 50115  1  0  0  0  0
 51 52  1  0  0  0  0
 51 56  2  0  0  0  0
 52 53  2  0  0  0  0
 52 54  2  0  0  0  0
 52 55  1  0  0  0  0
 56 57  1  0  0  0  0
 56116  1  0  0  0  0
 57117  1  0  0  0  0
 58 59  1  0  0  0  0
 58 78  1  0  0  0  0
 59 60  2  0  0  0  0
 60 61  1  0  0  0  0
 60 77  1  0  0  0  0
 61 62  1  0  0  0  0
 61 72  2  0  0  0  0
 62 63  1  0  0  0  0
 62 71  2  0  0  0  0
 63 64  2  0  0  0  0
 63118  1  0  0  0  0
 64 65  1  0  0  0  0
 64119  1  0  0  0  0
 65 66  1  0  0  0  0
 65 70  2  0  0  0  0
 66 67  2  0  0  0  0
 66 68  2  0  0  0  0
 66 69  1  0  0  0  0
 70 71  1  0  0  0  0
 70120  1  0  0  0  0
 71121  1  0  0  0  0
 72 73  1  0  0  0  0
 72 76  1  0  0  0  0
 73 74  2  0  0  0  0
 73122  1  0  0  0  0
 74 75  1  0  0  0  0
 74123  1  0  0  0  0
 75 76  1  0  0  0  0
 76124  1  0  0  0  0
 77 78  2  0  0  0  0
 77125  1  0  0  0  0
 78126  1  0  0  0  0
 79 80  2  0  0  0  0
 79127  1  0  0  0  0
 80128  1  0  0  0  0
 81 82  1  0  0  0  0
 81129  1  0  0  0  0
 82130  1  0  0  0  0
 83131  1  0  0  0  0
 83132  1  0  0  0  0
 84 85  1  0  0  0  0
 84133  1  0  0  0  0
 85 86  1  0  0  0  0
 86134  1  0  0  0  0
 86135  1  0  0  0  0
 86136  1  0  0  0  0
M  CHG  3  39  -1  55  -1  69  -1
M  END
$$$$
