3_1_3113
 OpenBabel04152301373D

140150  0  0  1  0  0  0  0  0999 V2000
   -0.9653   -1.3330   -1.7083 C   0  0  0  0  0  0  0  0  0  0  0  0
   -1.4366   -0.4785   -0.5234 C   0  0  1  0  0  0  0  0  0  0  0  0
   -2.9295   -0.1538   -0.6421 C   0  0  0  0  0  0  0  0  0  0  0  0
   -3.7888   -0.6605    0.0767 O   0  0  0  0  0  0  0  0  0  0  0  0
   -3.3471    0.7529   -1.5707 N   0  0  0  0  0  0  0  0  0  0  0  0
   -2.6263    1.3344   -2.6841 C   0  0  0  0  0  0  0  0  0  0  0  0
   -2.9403    0.5802   -3.9779 C   0  0  0  0  0  0  0  0  0  0  0  0
   -4.3831    0.7391   -4.4661 C   0  0  0  0  0  0  0  0  0  0  0  0
   -4.8225    2.1766   -4.7140 C   0  0  0  0  0  0  0  0  0  0  0  0
   -3.9754    2.8656   -5.6748 N   0  0  0  0  0  0  0  0  0  0  0  0
   -4.3407    3.7416   -6.6666 C   0  0  0  0  0  0  0  0  0  0  0  0
   -3.5078    4.1273   -7.4823 O   0  0  0  0  0  0  0  0  0  0  0  0
   -5.7459    4.1874   -6.7630 C   0  0  0  0  0  0  0  0  0  0  0  0
   -6.3791    4.1546   -8.0071 C   0  0  0  0  0  0  0  0  0  0  0  0
   -7.7296    4.4949   -8.1021 C   0  0  0  0  0  0  0  0  0  0  0  0
   -8.4602    4.8315   -6.9504 C   0  0  0  0  0  0  0  0  0  0  0  0
   -9.9128    5.1291   -7.0226 C   0  0  0  0  0  0  0  0  0  0  0  0
  -10.4217    6.5010   -6.6728 C   0  0  0  0  0  0  0  0  0  0  0  0
  -11.6548    6.9357   -6.6302 N   0  0  0  0  0  0  0  0  0  0  0  0
  -11.5757    8.2576   -6.2080 C   0  0  0  0  0  0  0  0  0  0  0  0
  -12.5732    9.1614   -6.0578 C   0  0  0  0  0  0  0  0  0  0  0  0
  -12.1968   10.5415   -5.5862 C   0  0  0  0  0  0  0  0  0  0  0  0
  -11.4837   11.4241   -6.4181 C   0  0  0  0  0  0  0  0  0  0  0  0
  -11.1397   12.7007   -5.9666 C   0  0  0  0  0  0  0  0  0  0  0  0
  -11.5366   13.1117   -4.6907 C   0  0  0  0  0  0  0  0  0  0  0  0
  -11.0961   14.7827   -4.1398 S   0  0  0  0  0  0  0  0  0  0  0  0
   -9.6640   14.6469   -3.8848 O   0  0  0  0  0  0  0  0  0  0  0  0
  -11.4527   15.6051   -5.2930 O   0  0  0  0  0  0  0  0  0  0  0  0
  -11.9231   14.9865   -2.9531 O   0  5  0  0  0  0  0  0  0  0  0  0
  -12.2779   12.2642   -3.8647 C   0  0  0  0  0  0  0  0  0  0  0  0
  -12.5952   10.9773   -4.3094 C   0  0  0  0  0  0  0  0  0  0  0  0
  -13.9602    8.8814   -6.3179 C   0  0  0  0  0  0  0  0  0  0  0  0
  -15.0388    9.7462   -6.2525 C   0  0  0  0  0  0  0  0  0  0  0  0
  -16.1989    9.0195   -6.5399 C   0  0  0  0  0  0  0  0  0  0  0  0
  -15.8364    7.7163   -6.8407 C   0  0  0  0  0  0  0  0  0  0  0  0
  -14.4617    7.6439   -6.6919 N   0  0  0  0  0  0  0  0  0  0  0  0
  -16.6844    6.6192   -7.2336 C   0  0  0  0  0  0  0  0  0  0  0  0
  -18.1580    6.8901   -7.3789 C   0  0  0  0  0  0  0  0  0  0  0  0
  -19.0885    6.3812   -6.4560 C   0  0  0  0  0  0  0  0  0  0  0  0
  -20.4501    6.6614   -6.5997 C   0  0  0  0  0  0  0  0  0  0  0  0
  -20.8809    7.4764   -7.6514 C   0  0  0  0  0  0  0  0  0  0  0  0
  -22.6483    7.8583   -7.7936 S   0  0  0  0  0  0  0  0  0  0  0  0
  -23.1907    6.6009   -8.3005 O   0  0  0  0  0  0  0  0  0  0  0  0
  -23.0162    8.1934   -6.4200 O   0  0  0  0  0  0  0  0  0  0  0  0
  -22.6865    8.9773   -8.7326 O   0  5  0  0  0  0  0  0  0  0  0  0
  -19.9674    8.0162   -8.5588 C   0  0  0  0  0  0  0  0  0  0  0  0
  -18.6107    7.7110   -8.4283 C   0  0  0  0  0  0  0  0  0  0  0  0
  -16.2504    5.3652   -7.5122 C   0  0  0  0  0  0  0  0  0  0  0  0
  -14.9542    4.8623   -7.4883 N   0  0  0  0  0  0  0  0  0  0  0  0
  -15.0563    3.5977   -7.8221 C   0  0  0  0  0  0  0  0  0  0  0  0
  -13.9665    2.5748   -7.9894 C   0  0  0  0  0  0  0  0  0  0  0  0
  -14.2856    1.1724   -8.3724 C   0  0  0  0  0  0  0  0  0  0  0  0
  -14.7395    0.8720   -9.6686 C   0  0  0  0  0  0  0  0  0  0  0  0
  -15.0395   -0.4456  -10.0267 C   0  0  0  0  0  0  0  0  0  0  0  0
  -14.8622   -1.4719   -9.0945 C   0  0  0  0  0  0  0  0  0  0  0  0
  -15.2054   -3.1810   -9.5984 S   0  0  0  0  0  0  0  0  0  0  0  0
  -16.6642   -3.2023   -9.6250 O   0  0  0  0  0  0  0  0  0  0  0  0
  -14.5465   -3.2650  -10.8996 O   0  0  0  0  0  0  0  0  0  0  0  0
  -14.5851   -3.9788   -8.5429 O   0  5  0  0  0  0  0  0  0  0  0  0
  -14.3933   -1.1957   -7.8088 C   0  0  0  0  0  0  0  0  0  0  0  0
  -14.1206    0.1263   -7.4461 C   0  0  0  0  0  0  0  0  0  0  0  0
  -12.6844    2.9455   -7.8057 C   0  0  0  0  0  0  0  0  0  0  0  0
  -11.5256    2.0700   -7.9487 C   0  0  0  0  0  0  0  0  0  0  0  0
  -10.4130    2.7635   -7.6581 C   0  0  0  0  0  0  0  0  0  0  0  0
  -10.7784    4.1473   -7.3439 C   0  0  0  0  0  0  0  0  0  0  0  0
  -12.1464    4.1608   -7.4529 N   0  0  0  0  0  0  0  0  0  0  0  0
  -16.4325    3.1474   -8.0704 C   0  0  0  0  0  0  0  0  0  0  0  0
  -17.1156    4.2725   -7.9080 C   0  0  0  0  0  0  0  0  0  0  0  0
  -10.1786    8.5396   -5.9611 C   0  0  0  0  0  0  0  0  0  0  0  0
   -9.4165    7.5093   -6.2975 C   0  0  0  0  0  0  0  0  0  0  0  0
   -7.8027    4.8847   -5.7123 C   0  0  0  0  0  0  0  0  0  0  0  0
   -6.4405    4.6141   -5.6274 C   0  0  0  0  0  0  0  0  0  0  0  0
   -1.0290   -1.1562    0.8158 C   0  0  1  0  0  0  0  0  0  0  0  0
   -1.4707   -0.3945    2.0737 C   0  0  0  0  0  0  0  0  0  0  0  0
   -1.0100   -1.1090    3.3411 C   0  0  0  0  0  0  0  0  0  0  0  0
   -1.3853   -2.4856    3.3665 O   0  0  0  0  0  0  0  0  0  0  0  0
   -0.9511   -3.2675    2.2429 C   0  0  0  0  0  0  0  0  0  0  0  0
    0.5875   -3.4343    2.2355 C   0  0  0  0  0  0  0  0  0  0  0  0
    1.0932   -4.1931    3.4609 C   0  0  0  0  0  0  0  0  0  0  0  0
    0.4359   -5.5625    3.5690 C   0  0  0  0  0  0  0  0  0  0  0  0
   -1.0842   -5.4519    3.5787 C   0  0  0  0  0  0  0  0  0  0  0  0
   -1.6034   -4.6629    2.3770 C   0  0  0  0  0  0  0  0  0  0  0  0
   -1.4620   -2.6247    0.9393 C   0  0  0  0  0  0  0  0  0  0  0  0
   -1.2497   -0.8597   -2.6248 H   0  0  0  0  0  0  0  0  0  0  0  0
   -1.4171   -2.3013   -1.6518 H   0  0  0  0  0  0  0  0  0  0  0  0
    0.0994   -1.4337   -1.6743 H   0  0  0  0  0  0  0  0  0  0  0  0
   -0.9437    0.4711   -0.5376 H   0  0  0  0  0  0  0  0  0  0  0  0
   -4.2776    1.0579   -1.4692 H   0  0  0  0  0  0  0  0  0  0  0  0
   -1.5754    1.2794   -2.4906 H   0  0  0  0  0  0  0  0  0  0  0  0
   -2.9276    2.3549   -2.7965 H   0  0  0  0  0  0  0  0  0  0  0  0
   -2.7553   -0.4606   -3.8123 H   0  0  0  0  0  0  0  0  0  0  0  0
   -2.3124    0.9988   -4.7365 H   0  0  0  0  0  0  0  0  0  0  0  0
   -5.0321    0.3159   -3.7281 H   0  0  0  0  0  0  0  0  0  0  0  0
   -4.4359    0.2421   -5.4122 H   0  0  0  0  0  0  0  0  0  0  0  0
   -4.7907    2.7089   -3.7863 H   0  0  0  0  0  0  0  0  0  0  0  0
   -5.8122    2.1463   -5.1196 H   0  0  0  0  0  0  0  0  0  0  0  0
   -3.0113    2.6788   -5.6045 H   0  0  0  0  0  0  0  0  0  0  0  0
   -5.8520    3.8805   -8.8510 H   0  0  0  0  0  0  0  0  0  0  0  0
   -8.1940    4.4992   -9.0237 H   0  0  0  0  0  0  0  0  0  0  0  0
  -11.2129   11.1264   -7.3684 H   0  0  0  0  0  0  0  0  0  0  0  0
  -10.5960   13.3363   -6.5712 H   0  0  0  0  0  0  0  0  0  0  0  0
  -12.5887   12.5850   -2.9344 H   0  0  0  0  0  0  0  0  0  0  0  0
  -13.1268   10.3409   -3.6951 H   0  0  0  0  0  0  0  0  0  0  0  0
  -14.9948   10.7530   -6.0302 H   0  0  0  0  0  0  0  0  0  0  0  0
  -17.1617    9.3910   -6.5297 H   0  0  0  0  0  0  0  0  0  0  0  0
  -13.9203    6.8335   -6.8311 H   0  0  0  0  0  0  0  0  0  0  0  0
  -18.7645    5.7979   -5.6687 H   0  0  0  0  0  0  0  0  0  0  0  0
  -21.1338    6.2691   -5.9335 H   0  0  0  0  0  0  0  0  0  0  0  0
  -20.2915    8.6348   -9.3186 H   0  0  0  0  0  0  0  0  0  0  0  0
  -17.9337    8.0912   -9.1081 H   0  0  0  0  0  0  0  0  0  0  0  0
  -14.8520    1.6294  -10.3605 H   0  0  0  0  0  0  0  0  0  0  0  0
  -15.3898   -0.6592  -10.9736 H   0  0  0  0  0  0  0  0  0  0  0  0
  -14.2492   -1.9612   -7.1319 H   0  0  0  0  0  0  0  0  0  0  0  0
  -13.7951    0.3371   -6.4897 H   0  0  0  0  0  0  0  0  0  0  0  0
  -11.5563    1.0771   -8.2283 H   0  0  0  0  0  0  0  0  0  0  0  0
   -9.4538    2.3827   -7.6563 H   0  0  0  0  0  0  0  0  0  0  0  0
  -12.6914    4.9651   -7.2935 H   0  0  0  0  0  0  0  0  0  0  0  0
  -16.7769    2.2041   -8.3085 H   0  0  0  0  0  0  0  0  0  0  0  0
  -18.1347    4.3588   -8.0461 H   0  0  0  0  0  0  0  0  0  0  0  0
   -9.8221    9.4272   -5.5736 H   0  0  0  0  0  0  0  0  0  0  0  0
   -8.3873    7.4334   -6.2967 H   0  0  0  0  0  0  0  0  0  0  0  0
   -8.3322    5.1258   -4.8599 H   0  0  0  0  0  0  0  0  0  0  0  0
   -5.9448    4.7280   -4.7294 H   0  0  0  0  0  0  0  0  0  0  0  0
    0.0394   -1.1251    0.7662 H   0  0  0  0  0  0  0  0  0  0  0  0
   -2.5383   -0.3230    2.0817 H   0  0  0  0  0  0  0  0  0  0  0  0
   -1.0278    0.5793    2.0534 H   0  0  0  0  0  0  0  0  0  0  0  0
   -1.4460   -0.6200    4.1871 H   0  0  0  0  0  0  0  0  0  0  0  0
    0.0588   -1.0657    3.3653 H   0  0  0  0  0  0  0  0  0  0  0  0
    1.0389   -2.4643    2.2207 H   0  0  0  0  0  0  0  0  0  0  0  0
    0.8516   -4.0009    1.3671 H   0  0  0  0  0  0  0  0  0  0  0  0
    0.8672   -3.6268    4.3402 H   0  0  0  0  0  0  0  0  0  0  0  0
    2.1498   -4.3306    3.3627 H   0  0  0  0  0  0  0  0  0  0  0  0
    0.7564   -6.0316    4.4757 H   0  0  0  0  0  0  0  0  0  0  0  0
    0.7254   -6.1425    2.7177 H   0  0  0  0  0  0  0  0  0  0  0  0
   -1.3897   -4.9565    4.4765 H   0  0  0  0  0  0  0  0  0  0  0  0
   -1.4900   -6.4407    3.5280 H   0  0  0  0  0  0  0  0  0  0  0  0
   -1.3987   -5.2219    1.4879 H   0  0  0  0  0  0  0  0  0  0  0  0
   -2.6529   -4.5130    2.5218 H   0  0  0  0  0  0  0  0  0  0  0  0
   -1.0703   -3.1718    0.1074 H   0  0  0  0  0  0  0  0  0  0  0  0
   -2.5315   -2.6547    0.9522 H   0  0  0  0  0  0  0  0  0  0  0  0
  1  2  1  0  0  0  0
  1 84  1  0  0  0  0
  1 85  1  0  0  0  0
  1 86  1  0  0  0  0
  2  3  1  0  0  0  0
  2 87  1  6  0  0  0
  3  4  2  0  0  0  0
  3  5  1  0  0  0  0
  5  6  1  0  0  0  0
  5 88  1  0  0  0  0
  6  7  1  0  0  0  0
  6 89  1  0  0  0  0
  6 90  1  0  0  0  0
  7  8  1  0  0  0  0
  7 91  1  0  0  0  0
  7 92  1  0  0  0  0
  8  9  1  0  0  0  0
  8 93  1  0  0  0  0
  8 94  1  0  0  0  0
  9 10  1  0  0  0  0
  9 95  1  0  0  0  0
  9 96  1  0  0  0  0
 10 11  1  0  0  0  0
 10 97  1  0  0  0  0
 11 12  2  0  0  0  0
 11 13  1  0  0  0  0
 13 14  1  0  0  0  0
 13 72  2  0  0  0  0
 14 15  2  0  0  0  0
 14 98  1  0  0  0  0
 15 16  1  0  0  0  0
 15 99  1  0  0  0  0
 16 17  1  0  0  0  0
 16 71  2  0  0  0  0
 17 18  1  0  0  0  0
 17 65  2  0  0  0  0
 18 19  2  0  0  0  0
 18 70  1  0  0  0  0
 19 20  1  0  0  0  0
 20 21  2  0  0  0  0
 20 69  1  0  0  0  0
 21 22  1  0  0  0  0
 21 32  1  0  0  0  0
 22 23  1  0  0  0  0
 22 31  2  0  0  0  0
 23 24  2  0  0  0  0
 23100  1  0  0  0  0
 24 25  1  0  0  0  0
 24101  1  0  0  0  0
 25 26  1  0  0  0  0
 25 30  2  0  0  0  0
 26 27  2  0  0  0  0
 26 28  2  0  0  0  0
 26 29  1  0  0  0  0
 30 31  1  0  0  0  0
 30102  1  0  0  0  0
 31103  1  0  0  0  0
 32 33  2  0  0  0  0
 32 36  1  0  0  0  0
 33 34  1  0  0  0  0
 33104  1  0  0  0  0
 34 35  2  0  0  0  0
 34105  1  0  0  0  0
 35 36  1  0  0  0  0
 35 37  1  0  0  0  0
 36106  1  0  0  0  0
 37 38  1  0  0  0  0
 37 48  2  0  0  0  0
 38 39  1  0  0  0  0
 38 47  2  0  0  0  0
 39 40  2  0  0  0  0
 39107  1  0  0  0  0
 40 41  1  0  0  0  0
 40108  1  0  0  0  0
 41 42  1  0  0  0  0
 41 46  2  0  0  0  0
 42 43  2  0  0  0  0
 42 44  2  0  0  0  0
 42 45  1  0  0  0  0
 46 47  1  0  0  0  0
 46109  1  0  0  0  0
 47110  1  0  0  0  0
 48 49  1  0  0  0  0
 48 68  1  0  0  0  0
 49 50  2  0  0  0  0
 50 51  1  0  0  0  0
 50 67  1  0  0  0  0
 51 52  1  0  0  0  0
 51 62  2  0  0  0  0
 52 53  1  0  0  0  0
 52 61  2  0  0  0  0
 53 54  2  0  0  0  0
 53111  1  0  0  0  0
 54 55  1  0  0  0  0
 54112  1  0  0  0  0
 55 56  1  0  0  0  0
 55 60  2  0  0  0  0
 56 57  2  0  0  0  0
 56 58  2  0  0  0  0
 56 59  1  0  0  0  0
 60 61  1  0  0  0  0
 60113  1  0  0  0  0
 61114  1  0  0  0  0
 62 63  1  0  0  0  0
 62 66  1  0  0  0  0
 63 64  2  0  0  0  0
 63115  1  0  0  0  0
 64 65  1  0  0  0  0
 64116  1  0  0  0  0
 65 66  1  0  0  0  0
 66117  1  0  0  0  0
 67 68  2  0  0  0  0
 67118  1  0  0  0  0
 68119  1  0  0  0  0
 69 70  2  0  0  0  0
 69120  1  0  0  0  0
 70121  1  0  0  0  0
 71 72  1  0  0  0  0
 71122  1  0  0  0  0
 72123  1  0  0  0  0
 73 74  1  0  0  0  0
 73 83  1  0  0  0  0
 73  2  1  0  0  0  0
 73124  1  1  0  0  0
 74 75  1  0  0  0  0
 74125  1  0  0  0  0
 74126  1  0  0  0  0
 75 76  1  0  0  0  0
 75127  1  0  0  0  0
 75128  1  0  0  0  0
 76 77  1  0  0  0  0
 77 78  1  0  0  0  0
 77 82  1  0  0  0  0
 77 83  1  0  0  0  0
 78 79  1  0  0  0  0
 78129  1  0  0  0  0
 78130  1  0  0  0  0
 79 80  1  0  0  0  0
 79131  1  0  0  0  0
 79132  1  0  0  0  0
 80 81  1  0  0  0  0
 80133  1  0  0  0  0
 80134  1  0  0  0  0
 81 82  1  0  0  0  0
 81135  1  0  0  0  0
 81136  1  0  0  0  0
 82137  1  0  0  0  0
 82138  1  0  0  0  0
 83139  1  0  0  0  0
 83140  1  0  0  0  0
M  CHG  3  29  -1  45  -1  59  -1
M  END
$$$$
