3_1_2650
 OpenBabel04152301363D

133143  0  0  0  0  0  0  0  0999 V2000
    1.0623    0.2885    0.5621 O   0  0  0  0  0  0  0  0  0  0  0  0
    2.0820    0.0592   -0.0972 C   0  0  0  0  0  0  0  0  0  0  0  0
    3.1461    0.8707    0.1837 N   0  0  0  0  0  0  0  0  0  0  0  0
    4.5461    0.9035   -0.1824 C   0  0  0  0  0  0  0  0  0  0  0  0
    4.8478    1.7170   -1.4398 C   0  0  0  0  0  0  0  0  0  0  0  0
    4.3608    3.1734   -1.4296 C   0  0  0  0  0  0  0  0  0  0  0  0
    4.7531    4.0215   -0.2164 C   0  0  0  0  0  0  0  0  0  0  0  0
    6.1947    4.1231   -0.0324 N   0  0  0  0  0  0  0  0  0  0  0  0
    6.9748    5.2487    0.0112 C   0  0  0  0  0  0  0  0  0  0  0  0
    8.2117    5.1295    0.1067 O   0  0  0  0  0  0  0  0  0  0  0  0
    6.3573    6.5670   -0.1188 C   0  0  0  0  0  0  0  0  0  0  0  0
    5.4190    6.9972    0.7463 N   0  0  0  0  0  0  0  0  0  0  0  0
    4.9689    8.1546    0.2201 N   0  0  0  0  0  0  0  0  0  0  0  0
    3.8538    8.8115    0.7931 C   0  0  0  0  0  0  0  0  0  0  0  0
    3.6611    8.7394    2.1814 C   0  0  0  0  0  0  0  0  0  0  0  0
    2.5561    9.3604    2.7669 C   0  0  0  0  0  0  0  0  0  0  0  0
    1.6167   10.0041    1.9511 C   0  0  0  0  0  0  0  0  0  0  0  0
    0.4303   10.6187    2.5596 N   0  3  0  0  0  0  0  0  0  0  0  0
    0.3873   10.6895    3.7964 O   0  0  0  0  0  0  0  0  0  0  0  0
   -0.4539   11.0406    1.8007 O   0  5  0  0  0  0  0  0  0  0  0  0
    1.7952   10.0612    0.5602 C   0  0  0  0  0  0  0  0  0  0  0  0
    2.9324    9.4865   -0.0182 C   0  0  0  0  0  0  0  0  0  0  0  0
    5.6930    8.5337   -0.8837 C   0  0  0  0  0  0  0  0  0  0  0  0
    6.6665    7.5732   -1.0798 C   0  0  0  0  0  0  0  0  0  0  0  0
    7.7494    7.5688   -2.1166 C   0  0  0  0  0  0  0  0  0  0  0  0
    9.1293    7.9312   -1.5530 C   0  0  0  0  0  0  0  0  0  0  0  0
    9.8868    6.7850   -1.1844 O   0  0  0  0  0  0  0  0  0  0  0  0
    2.0382   -1.0198   -1.1273 C   0  0  0  0  0  0  0  0  0  0  0  0
    3.1107   -1.4832   -1.8894 C   0  0  0  0  0  0  0  0  0  0  0  0
    2.9112   -2.4602   -2.8724 C   0  0  0  0  0  0  0  0  0  0  0  0
    1.6361   -2.9876   -3.1113 C   0  0  0  0  0  0  0  0  0  0  0  0
    1.4863   -4.0485   -4.1121 C   0  0  0  0  0  0  0  0  0  0  0  0
    2.1940   -5.3293   -3.8136 C   0  0  0  0  0  0  0  0  0  0  0  0
    3.1548   -5.8891   -4.4748 N   0  0  0  0  0  0  0  0  0  0  0  0
    3.4051   -7.1096   -3.8470 C   0  0  0  0  0  0  0  0  0  0  0  0
    4.1002   -8.1176   -4.4469 C   0  0  0  0  0  0  0  0  0  0  0  0
    3.8809   -9.5879   -4.1800 C   0  0  0  0  0  0  0  0  0  0  0  0
    4.7328  -10.5302   -4.7971 C   0  0  0  0  0  0  0  0  0  0  0  0
    4.3838  -11.8850   -4.8820 C   0  0  0  0  0  0  0  0  0  0  0  0
    3.1918  -12.3265   -4.3091 C   0  0  0  0  0  0  0  0  0  0  0  0
    2.6834  -14.0489   -4.5413 S   0  0  0  0  0  0  0  0  0  0  0  0
    2.4269  -14.0945   -5.9776 O   0  0  0  0  0  0  0  0  0  0  0  0
    3.8587  -14.7850   -4.0836 O   0  0  0  0  0  0  0  0  0  0  0  0
    1.5039  -14.1751   -3.6886 O   0  5  0  0  0  0  0  0  0  0  0  0
    2.3697  -11.4409   -3.6234 C   0  0  0  0  0  0  0  0  0  0  0  0
    2.7052  -10.0843   -3.5829 C   0  0  0  0  0  0  0  0  0  0  0  0
    4.8070   -7.6708   -5.6150 C   0  0  0  0  0  0  0  0  0  0  0  0
    5.8121   -6.7584   -5.8617 C   0  0  0  0  0  0  0  0  0  0  0  0
    5.4899   -6.1931   -7.1291 C   0  0  0  0  0  0  0  0  0  0  0  0
    4.3356   -6.8269   -7.5960 C   0  0  0  0  0  0  0  0  0  0  0  0
    4.2541   -7.9649   -6.8380 N   0  0  0  0  0  0  0  0  0  0  0  0
    3.3123   -6.3904   -8.5224 C   0  0  0  0  0  0  0  0  0  0  0  0
    3.6479   -5.1705   -9.3461 C   0  0  0  0  0  0  0  0  0  0  0  0
    3.1086   -3.8936   -9.0987 C   0  0  0  0  0  0  0  0  0  0  0  0
    3.6127   -2.7652   -9.7632 C   0  0  0  0  0  0  0  0  0  0  0  0
    4.6714   -2.9097  -10.6660 C   0  0  0  0  0  0  0  0  0  0  0  0
    5.3941   -1.4339  -11.4377 S   0  0  0  0  0  0  0  0  0  0  0  0
    4.3517   -1.0214  -12.3729 O   0  0  0  0  0  0  0  0  0  0  0  0
    5.6069   -0.5422  -10.2993 O   0  0  0  0  0  0  0  0  0  0  0  0
    6.6215   -1.9311  -12.0587 O   0  5  0  0  0  0  0  0  0  0  0  0
    5.2155   -4.1679  -10.9256 C   0  0  0  0  0  0  0  0  0  0  0  0
    4.6981   -5.2894  -10.2743 C   0  0  0  0  0  0  0  0  0  0  0  0
    2.0253   -6.8449   -8.5059 C   0  0  0  0  0  0  0  0  0  0  0  0
    0.9791   -6.0643   -8.9731 N   0  0  0  0  0  0  0  0  0  0  0  0
   -0.0646   -6.4687   -8.3054 C   0  0  0  0  0  0  0  0  0  0  0  0
   -1.1624   -5.5751   -7.8681 C   0  0  0  0  0  0  0  0  0  0  0  0
   -2.5874   -5.8607   -8.1739 C   0  0  0  0  0  0  0  0  0  0  0  0
   -2.9588   -6.5569   -9.3404 C   0  0  0  0  0  0  0  0  0  0  0  0
   -4.2385   -7.1263   -9.4680 C   0  0  0  0  0  0  0  0  0  0  0  0
   -5.1653   -6.9923   -8.4309 C   0  0  0  0  0  0  0  0  0  0  0  0
   -6.7482   -7.8829   -8.5219 S   0  0  0  0  0  0  0  0  0  0  0  0
   -7.4628   -7.1414   -9.5566 O   0  0  0  0  0  0  0  0  0  0  0  0
   -6.3328   -9.2347   -8.8856 O   0  0  0  0  0  0  0  0  0  0  0  0
   -7.2961   -7.7493   -7.1729 O   0  5  0  0  0  0  0  0  0  0  0  0
   -4.8406   -6.2621   -7.2904 C   0  0  0  0  0  0  0  0  0  0  0  0
   -3.5626   -5.7032   -7.1678 C   0  0  0  0  0  0  0  0  0  0  0  0
   -0.6567   -4.7286   -6.9358 C   0  0  0  0  0  0  0  0  0  0  0  0
   -1.1831   -3.4639   -6.4494 C   0  0  0  0  0  0  0  0  0  0  0  0
   -0.3659   -2.9906   -5.4795 C   0  0  0  0  0  0  0  0  0  0  0  0
    0.6552   -3.9959   -5.1744 C   0  0  0  0  0  0  0  0  0  0  0  0
    0.4883   -4.9150   -6.1715 N   0  0  0  0  0  0  0  0  0  0  0  0
    0.0678   -7.7668   -7.6649 C   0  0  0  0  0  0  0  0  0  0  0  0
    1.3863   -7.9400   -7.7820 C   0  0  0  0  0  0  0  0  0  0  0  0
    2.6327   -7.1014   -2.6289 C   0  0  0  0  0  0  0  0  0  0  0  0
    1.8210   -6.0436   -2.5835 C   0  0  0  0  0  0  0  0  0  0  0  0
    0.5668   -2.5688   -2.3278 C   0  0  0  0  0  0  0  0  0  0  0  0
    0.7697   -1.5960   -1.3505 C   0  0  0  0  0  0  0  0  0  0  0  0
    2.9000    1.6140    0.7805 H   0  0  0  0  0  0  0  0  0  0  0  0
    4.8731   -0.1019   -0.3472 H   0  0  0  0  0  0  0  0  0  0  0  0
    5.0626    1.3818    0.6234 H   0  0  0  0  0  0  0  0  0  0  0  0
    4.3858    1.2227   -2.2687 H   0  0  0  0  0  0  0  0  0  0  0  0
    5.9147    1.7690   -1.5018 H   0  0  0  0  0  0  0  0  0  0  0  0
    3.2922    3.1583   -1.4827 H   0  0  0  0  0  0  0  0  0  0  0  0
    4.8434    3.6370   -2.2645 H   0  0  0  0  0  0  0  0  0  0  0  0
    4.3282    3.5789    0.6602 H   0  0  0  0  0  0  0  0  0  0  0  0
    4.3825    5.0109   -0.3854 H   0  0  0  0  0  0  0  0  0  0  0  0
    6.6722    3.2689    0.0750 H   0  0  0  0  0  0  0  0  0  0  0  0
    4.3366    8.2271    2.7699 H   0  0  0  0  0  0  0  0  0  0  0  0
    2.4325    9.3453    3.7914 H   0  0  0  0  0  0  0  0  0  0  0  0
    1.0904   10.5253   -0.0338 H   0  0  0  0  0  0  0  0  0  0  0  0
    3.0913    9.5594   -1.0353 H   0  0  0  0  0  0  0  0  0  0  0  0
    5.5389    9.3770   -1.4583 H   0  0  0  0  0  0  0  0  0  0  0  0
    7.4955    8.2784   -2.8761 H   0  0  0  0  0  0  0  0  0  0  0  0
    7.8157    6.5728   -2.5020 H   0  0  0  0  0  0  0  0  0  0  0  0
    8.9955    8.5465   -0.6879 H   0  0  0  0  0  0  0  0  0  0  0  0
    9.6693    8.4437   -2.3215 H   0  0  0  0  0  0  0  0  0  0  0  0
    9.4196    6.2993   -0.4867 H   0  0  0  0  0  0  0  0  0  0  0  0
    4.0567   -1.1038   -1.7278 H   0  0  0  0  0  0  0  0  0  0  0  0
    3.7137   -2.7958   -3.4277 H   0  0  0  0  0  0  0  0  0  0  0  0
    5.6316  -10.2145   -5.1940 H   0  0  0  0  0  0  0  0  0  0  0  0
    5.0054  -12.5518   -5.3657 H   0  0  0  0  0  0  0  0  0  0  0  0
    1.5192  -11.7814   -3.1483 H   0  0  0  0  0  0  0  0  0  0  0  0
    2.0726   -9.4266   -3.1011 H   0  0  0  0  0  0  0  0  0  0  0  0
    6.6201   -6.5345   -5.2601 H   0  0  0  0  0  0  0  0  0  0  0  0
    6.0148   -5.4492   -7.6150 H   0  0  0  0  0  0  0  0  0  0  0  0
    3.8723   -8.8286   -7.1163 H   0  0  0  0  0  0  0  0  0  0  0  0
    2.3360   -3.7867   -8.4229 H   0  0  0  0  0  0  0  0  0  0  0  0
    3.2046   -1.8338   -9.5868 H   0  0  0  0  0  0  0  0  0  0  0  0
    5.9950   -4.2690  -11.5944 H   0  0  0  0  0  0  0  0  0  0  0  0
    5.0928   -6.2211  -10.4773 H   0  0  0  0  0  0  0  0  0  0  0  0
   -2.2816   -6.6507  -10.1134 H   0  0  0  0  0  0  0  0  0  0  0  0
   -4.4923   -7.6417  -10.3253 H   0  0  0  0  0  0  0  0  0  0  0  0
   -5.5376   -6.1337   -6.5402 H   0  0  0  0  0  0  0  0  0  0  0  0
   -3.3287   -5.1628   -6.3203 H   0  0  0  0  0  0  0  0  0  0  0  0
   -2.0411   -3.0016   -6.7887 H   0  0  0  0  0  0  0  0  0  0  0  0
   -0.4491   -2.0671   -5.0264 H   0  0  0  0  0  0  0  0  0  0  0  0
    1.1256   -5.6475   -6.3345 H   0  0  0  0  0  0  0  0  0  0  0  0
   -0.6491   -8.3772   -7.2424 H   0  0  0  0  0  0  0  0  0  0  0  0
    1.8954   -8.7544   -7.4043 H   0  0  0  0  0  0  0  0  0  0  0  0
    2.6992   -7.8189   -1.8901 H   0  0  0  0  0  0  0  0  0  0  0  0
    1.1166   -5.7926   -1.8722 H   0  0  0  0  0  0  0  0  0  0  0  0
   -0.3711   -2.9756   -2.4689 H   0  0  0  0  0  0  0  0  0  0  0  0
   -0.0296   -1.2888   -0.7745 H   0  0  0  0  0  0  0  0  0  0  0  0
  1  2  2  0  0  0  0
  2  3  1  0  0  0  0
  2 28  1  0  0  0  0
  3  4  1  0  0  0  0
  3 88  1  0  0  0  0
  4  5  1  0  0  0  0
  4 89  1  0  0  0  0
  4 90  1  0  0  0  0
  5  6  1  0  0  0  0
  5 91  1  0  0  0  0
  5 92  1  0  0  0  0
  6  7  1  0  0  0  0
  6 93  1  0  0  0  0
  6 94  1  0  0  0  0
  7  8  1  0  0  0  0
  7 95  1  0  0  0  0
  7 96  1  0  0  0  0
  8  9  1  0  0  0  0
  8 97  1  0  0  0  0
  9 10  2  0  0  0  0
  9 11  1  0  0  0  0
 11 12  2  0  0  0  0
 11 24  1  0  0  0  0
 12 13  1  0  0  0  0
 13 14  1  0  0  0  0
 13 23  1  0  0  0  0
 14 15  1  0  0  0  0
 14 22  2  0  0  0  0
 15 16  2  0  0  0  0
 15 98  1  0  0  0  0
 16 17  1  0  0  0  0
 16 99  1  0  0  0  0
 17 18  1  0  0  0  0
 17 21  2  0  0  0  0
 18 19  2  0  0  0  0
 18 20  1  0  0  0  0
 21 22  1  0  0  0  0
 21100  1  0  0  0  0
 22101  1  0  0  0  0
 23 24  2  0  0  0  0
 23102  1  0  0  0  0
 24 25  1  0  0  0  0
 25 26  1  0  0  0  0
 25103  1  0  0  0  0
 25104  1  0  0  0  0
 26 27  1  0  0  0  0
 26105  1  0  0  0  0
 26106  1  0  0  0  0
 27107  1  0  0  0  0
 28 29  1  0  0  0  0
 28 87  2  0  0  0  0
 29 30  2  0  0  0  0
 29108  1  0  0  0  0
 30 31  1  0  0  0  0
 30109  1  0  0  0  0
 31 32  1  0  0  0  0
 31 86  2  0  0  0  0
 32 33  1  0  0  0  0
 32 80  2  0  0  0  0
 33 34  2  0  0  0  0
 33 85  1  0  0  0  0
 34 35  1  0  0  0  0
 35 36  2  0  0  0  0
 35 84  1  0  0  0  0
 36 37  1  0  0  0  0
 36 47  1  0  0  0  0
 37 38  1  0  0  0  0
 37 46  2  0  0  0  0
 38 39  2  0  0  0  0
 38110  1  0  0  0  0
 39 40  1  0  0  0  0
 39111  1  0  0  0  0
 40 41  1  0  0  0  0
 40 45  2  0  0  0  0
 41 42  2  0  0  0  0
 41 43  2  0  0  0  0
 41 44  1  0  0  0  0
 45 46  1  0  0  0  0
 45112  1  0  0  0  0
 46113  1  0  0  0  0
 47 48  2  0  0  0  0
 47 51  1  0  0  0  0
 48 49  1  0  0  0  0
 48114  1  0  0  0  0
 49 50  2  0  0  0  0
 49115  1  0  0  0  0
 50 51  1  0  0  0  0
 50 52  1  0  0  0  0
 51116  1  0  0  0  0
 52 53  1  0  0  0  0
 52 63  2  0  0  0  0
 53 54  1  0  0  0  0
 53 62  2  0  0  0  0
 54 55  2  0  0  0  0
 54117  1  0  0  0  0
 55 56  1  0  0  0  0
 55118  1  0  0  0  0
 56 57  1  0  0  0  0
 56 61  2  0  0  0  0
 57 58  2  0  0  0  0
 57 59  2  0  0  0  0
 57 60  1  0  0  0  0
 61 62  1  0  0  0  0
 61119  1  0  0  0  0
 62120  1  0  0  0  0
 63 64  1  0  0  0  0
 63 83  1  0  0  0  0
 64 65  2  0  0  0  0
 65 66  1  0  0  0  0
 65 82  1  0  0  0  0
 66 67  1  0  0  0  0
 66 77  2  0  0  0  0
 67 68  1  0  0  0  0
 67 76  2  0  0  0  0
 68 69  2  0  0  0  0
 68121  1  0  0  0  0
 69 70  1  0  0  0  0
 69122  1  0  0  0  0
 70 71  1  0  0  0  0
 70 75  2  0  0  0  0
 71 72  2  0  0  0  0
 71 73  2  0  0  0  0
 71 74  1  0  0  0  0
 75 76  1  0  0  0  0
 75123  1  0  0  0  0
 76124  1  0  0  0  0
 77 78  1  0  0  0  0
 77 81  1  0  0  0  0
 78 79  2  0  0  0  0
 78125  1  0  0  0  0
 79 80  1  0  0  0  0
 79126  1  0  0  0  0
 80 81  1  0  0  0  0
 81127  1  0  0  0  0
 82 83  2  0  0  0  0
 82128  1  0  0  0  0
 83129  1  0  0  0  0
 84 85  2  0  0  0  0
 84130  1  0  0  0  0
 85131  1  0  0  0  0
 86 87  1  0  0  0  0
 86132  1  0  0  0  0
 87133  1  0  0  0  0
M  CHG  5  18   1  20  -1  44  -1  60  -1  74  -1
M  END
$$$$
