3_2_9559
 OpenBabel04152301373D

137147  0  0  1  0  0  0  0  0999 V2000
    1.7201    0.3470   -0.3767 C   0  0  0  0  0  0  0  0  0  0  0  0
    0.8592   -0.4260   -1.3614 C   0  0  0  0  0  0  0  0  0  0  0  0
    0.9737   -1.9446   -1.2431 C   0  0  0  0  0  0  0  0  0  0  0  0
    0.7591   -2.6089    0.0320 N   0  0  0  0  0  0  0  0  0  0  0  0
    1.3927   -3.7948    0.1728 N   0  0  0  0  0  0  0  0  0  0  0  0
    1.0196   -4.2287    1.3714 C   0  0  0  0  0  0  0  0  0  0  0  0
    0.1558   -3.3439    2.0445 C   0  0  0  0  0  0  0  0  0  0  0  0
   -0.5316   -3.4685    3.3354 C   0  0  0  0  0  0  0  0  0  0  0  0
   -1.1797   -2.5436    3.8190 O   0  0  0  0  0  0  0  0  0  0  0  0
   -0.5781   -4.7362    3.8887 N   0  0  0  0  0  0  0  0  0  0  0  0
    0.5575   -5.4351    4.4516 C   0  0  0  0  0  0  0  0  0  0  0  0
   -0.0045   -6.8006    4.7982 C   0  0  0  0  0  0  0  0  0  0  0  0
   -1.4462   -6.5099    5.2136 C   0  0  0  0  0  0  0  0  0  0  0  0
   -1.8154   -5.1928    4.5141 C   0  0  2  0  0  0  0  0  0  0  0  0
   -3.0045   -5.3953    3.5503 C   0  0  0  0  0  0  0  0  0  0  0  0
   -4.1571   -5.1822    3.9403 O   0  0  0  0  0  0  0  0  0  0  0  0
   -2.8680   -5.9760    2.3212 N   0  0  0  0  0  0  0  0  0  0  0  0
   -1.6880   -6.4183    1.6027 C   0  0  0  0  0  0  0  0  0  0  0  0
   -1.5024   -7.9332    1.5866 C   0  0  0  0  0  0  0  0  0  0  0  0
   -2.1512   -8.5671    0.3745 C   0  0  0  0  0  0  0  0  0  0  0  0
   -1.4964   -8.1851   -0.8853 N   0  0  0  0  0  0  0  0  0  0  0  0
   -1.9313   -8.4147   -2.1876 C   0  0  0  0  0  0  0  0  0  0  0  0
   -1.1820   -8.3387   -3.1324 O   0  0  0  0  0  0  0  0  0  0  0  0
   -3.3550   -8.7634   -2.3569 C   0  0  0  0  0  0  0  0  0  0  0  0
   -3.7623   -9.8889   -3.0751 C   0  0  0  0  0  0  0  0  0  0  0  0
   -5.0754  -10.3359   -2.9202 C   0  0  0  0  0  0  0  0  0  0  0  0
   -5.9068   -9.7127   -1.9768 C   0  0  0  0  0  0  0  0  0  0  0  0
   -7.2378  -10.2259   -1.6514 C   0  0  0  0  0  0  0  0  0  0  0  0
   -7.3297  -11.6823   -1.3674 C   0  0  0  0  0  0  0  0  0  0  0  0
   -7.8439  -12.6003   -2.1179 N   0  0  0  0  0  0  0  0  0  0  0  0
   -7.8169  -13.7672   -1.3593 C   0  0  0  0  0  0  0  0  0  0  0  0
   -8.7700  -14.7308   -1.5112 C   0  0  0  0  0  0  0  0  0  0  0  0
   -9.2863  -15.6096   -0.3895 C   0  0  0  0  0  0  0  0  0  0  0  0
  -10.2231  -16.6207   -0.6957 C   0  0  0  0  0  0  0  0  0  0  0  0
  -10.9962  -17.2297    0.3043 C   0  0  0  0  0  0  0  0  0  0  0  0
  -10.8181  -16.8589    1.6368 C   0  0  0  0  0  0  0  0  0  0  0  0
  -11.8997  -17.5592    2.9091 S   0  0  0  0  0  0  0  0  0  0  0  0
  -13.1946  -16.9900    2.5496 O   0  0  0  0  0  0  0  0  0  0  0  0
  -11.7528  -18.9948    2.6855 O   0  0  0  0  0  0  0  0  0  0  0  0
  -11.3211  -17.0664    4.1570 O   0  5  0  0  0  0  0  0  0  0  0  0
   -9.8602  -15.9148    1.9809 C   0  0  0  0  0  0  0  0  0  0  0  0
   -9.1229  -15.2870    0.9731 C   0  0  0  0  0  0  0  0  0  0  0  0
   -9.6021  -14.4723   -2.6582 C   0  0  0  0  0  0  0  0  0  0  0  0
   -9.4955  -14.5706   -4.0266 C   0  0  0  0  0  0  0  0  0  0  0  0
  -10.4034  -13.6070   -4.5626 C   0  0  0  0  0  0  0  0  0  0  0  0
  -11.0602  -12.9740   -3.5084 C   0  0  0  0  0  0  0  0  0  0  0  0
  -10.6765  -13.6626   -2.3868 N   0  0  0  0  0  0  0  0  0  0  0  0
  -11.7656  -11.7104   -3.4088 C   0  0  0  0  0  0  0  0  0  0  0  0
  -11.7159  -10.7855   -4.5959 C   0  0  0  0  0  0  0  0  0  0  0  0
  -10.8920   -9.6473   -4.6759 C   0  0  0  0  0  0  0  0  0  0  0  0
  -10.8298   -8.8924   -5.8585 C   0  0  0  0  0  0  0  0  0  0  0  0
  -11.5851   -9.2836   -6.9691 C   0  0  0  0  0  0  0  0  0  0  0  0
  -11.4588   -8.3417   -8.5164 S   0  0  0  0  0  0  0  0  0  0  0  0
  -12.1159   -7.0825   -8.1776 O   0  0  0  0  0  0  0  0  0  0  0  0
  -10.0158   -8.2605   -8.7311 O   0  0  0  0  0  0  0  0  0  0  0  0
  -12.1738   -9.1695   -9.4875 O   0  5  0  0  0  0  0  0  0  0  0  0
  -12.4020  -10.4129   -6.9076 C   0  0  0  0  0  0  0  0  0  0  0  0
  -12.4690  -11.1514   -5.7246 C   0  0  0  0  0  0  0  0  0  0  0  0
  -12.3209  -11.2468   -2.2526 C   0  0  0  0  0  0  0  0  0  0  0  0
  -12.4025   -9.8948   -1.9865 N   0  0  0  0  0  0  0  0  0  0  0  0
  -12.2432   -9.8089   -0.6931 C   0  0  0  0  0  0  0  0  0  0  0  0
  -11.5511   -8.6761   -0.0456 C   0  0  0  0  0  0  0  0  0  0  0  0
  -12.0935   -7.9088    1.0937 C   0  0  0  0  0  0  0  0  0  0  0  0
  -13.4772   -7.7345    1.2523 C   0  0  0  0  0  0  0  0  0  0  0  0
  -14.0108   -7.3388    2.4878 C   0  0  0  0  0  0  0  0  0  0  0  0
  -13.1591   -7.0999    3.5706 C   0  0  0  0  0  0  0  0  0  0  0  0
  -13.8773   -6.7991    5.2123 S   0  0  0  0  0  0  0  0  0  0  0  0
  -14.4395   -5.4601    5.0633 O   0  0  0  0  0  0  0  0  0  0  0  0
  -14.8497   -7.8817    5.3348 O   0  0  0  0  0  0  0  0  0  0  0  0
  -12.7306   -6.8952    6.1136 O   0  5  0  0  0  0  0  0  0  0  0  0
  -11.7781   -7.1960    3.4167 C   0  0  0  0  0  0  0  0  0  0  0  0
  -11.2524   -7.5938    2.1830 C   0  0  0  0  0  0  0  0  0  0  0  0
  -10.2831   -8.6698   -0.5087 C   0  0  0  0  0  0  0  0  0  0  0  0
   -9.4038   -7.5303   -0.6544 C   0  0  0  0  0  0  0  0  0  0  0  0
   -8.3024   -7.9449   -1.3116 C   0  0  0  0  0  0  0  0  0  0  0  0
   -8.2907   -9.4161   -1.3931 C   0  0  0  0  0  0  0  0  0  0  0  0
   -9.5597   -9.7384   -1.0201 N   0  0  0  0  0  0  0  0  0  0  0  0
  -12.4719  -11.0423    0.0466 C   0  0  0  0  0  0  0  0  0  0  0  0
  -12.5476  -11.9037   -0.9721 C   0  0  0  0  0  0  0  0  0  0  0  0
   -6.9125  -13.5138   -0.2658 C   0  0  0  0  0  0  0  0  0  0  0  0
   -6.6815  -12.2029   -0.1523 C   0  0  0  0  0  0  0  0  0  0  0  0
   -5.4433   -8.6079   -1.2697 C   0  0  0  0  0  0  0  0  0  0  0  0
   -4.2534   -8.0243   -1.6054 C   0  0  0  0  0  0  0  0  0  0  0  0
   -0.0372   -2.3150    1.1177 C   0  0  0  0  0  0  0  0  0  0  0  0
   -0.9479   -1.1443    1.2467 C   0  0  0  0  0  0  0  0  0  0  0  0
    1.5798    1.3969   -0.5280 H   0  0  0  0  0  0  0  0  0  0  0  0
    2.7493    0.0987   -0.5314 H   0  0  0  0  0  0  0  0  0  0  0  0
    1.4374    0.0897    0.6227 H   0  0  0  0  0  0  0  0  0  0  0  0
    1.1493   -0.1447   -2.3522 H   0  0  0  0  0  0  0  0  0  0  0  0
   -0.1575   -0.1782   -1.1382 H   0  0  0  0  0  0  0  0  0  0  0  0
    1.9632   -2.2018   -1.5587 H   0  0  0  0  0  0  0  0  0  0  0  0
    0.1519   -2.2920   -1.8338 H   0  0  0  0  0  0  0  0  0  0  0  0
    1.3326   -5.1274    1.7706 H   0  0  0  0  0  0  0  0  0  0  0  0
    0.9182   -4.9364    5.3269 H   0  0  0  0  0  0  0  0  0  0  0  0
    1.3905   -5.4847    3.7819 H   0  0  0  0  0  0  0  0  0  0  0  0
    0.5420   -7.2438    5.6043 H   0  0  0  0  0  0  0  0  0  0  0  0
    0.0590   -7.4918    3.9839 H   0  0  0  0  0  0  0  0  0  0  0  0
   -1.5150   -6.4016    6.2759 H   0  0  0  0  0  0  0  0  0  0  0  0
   -2.1073   -7.3051    4.9387 H   0  0  0  0  0  0  0  0  0  0  0  0
   -2.1711   -4.4368    5.1826 H   0  0  0  0  0  0  0  0  0  0  0  0
   -3.7155   -6.1187    1.8410 H   0  0  0  0  0  0  0  0  0  0  0  0
   -0.8286   -5.9789    2.0644 H   0  0  0  0  0  0  0  0  0  0  0  0
   -1.8117   -6.1108    0.5853 H   0  0  0  0  0  0  0  0  0  0  0  0
   -1.9429   -8.3454    2.4703 H   0  0  0  0  0  0  0  0  0  0  0  0
   -0.4531   -8.1390    1.5475 H   0  0  0  0  0  0  0  0  0  0  0  0
   -3.1754   -8.2599    0.3347 H   0  0  0  0  0  0  0  0  0  0  0  0
   -2.0597   -9.6282    0.4772 H   0  0  0  0  0  0  0  0  0  0  0  0
   -0.6411   -7.7057   -0.7965 H   0  0  0  0  0  0  0  0  0  0  0  0
   -3.1083  -10.3787   -3.7054 H   0  0  0  0  0  0  0  0  0  0  0  0
   -5.4313  -11.1167   -3.4935 H   0  0  0  0  0  0  0  0  0  0  0  0
  -10.3418  -16.9183   -1.6767 H   0  0  0  0  0  0  0  0  0  0  0  0
  -11.6933  -17.9486    0.0549 H   0  0  0  0  0  0  0  0  0  0  0  0
   -9.6941  -15.6787    2.9717 H   0  0  0  0  0  0  0  0  0  0  0  0
   -8.4358  -14.5630    1.2352 H   0  0  0  0  0  0  0  0  0  0  0  0
   -8.8840  -15.2103   -4.5575 H   0  0  0  0  0  0  0  0  0  0  0  0
  -10.5492  -13.4115   -5.5654 H   0  0  0  0  0  0  0  0  0  0  0  0
  -11.1120  -13.5867   -1.5071 H   0  0  0  0  0  0  0  0  0  0  0  0
  -10.3287   -9.3650   -3.8585 H   0  0  0  0  0  0  0  0  0  0  0  0
  -10.2303   -8.0538   -5.9079 H   0  0  0  0  0  0  0  0  0  0  0  0
  -12.9532  -10.7006   -7.7313 H   0  0  0  0  0  0  0  0  0  0  0  0
  -13.0821  -11.9802   -5.6782 H   0  0  0  0  0  0  0  0  0  0  0  0
  -14.1080   -7.8990    0.4523 H   0  0  0  0  0  0  0  0  0  0  0  0
  -15.0305   -7.2242    2.5974 H   0  0  0  0  0  0  0  0  0  0  0  0
  -11.1492   -6.9760    4.2048 H   0  0  0  0  0  0  0  0  0  0  0  0
  -10.2290   -7.6583    2.0667 H   0  0  0  0  0  0  0  0  0  0  0  0
   -9.5868   -6.5726   -0.3161 H   0  0  0  0  0  0  0  0  0  0  0  0
   -7.5753   -7.3241   -1.7000 H   0  0  0  0  0  0  0  0  0  0  0  0
   -9.9304  -10.6464   -1.1053 H   0  0  0  0  0  0  0  0  0  0  0  0
  -12.5522  -11.2041    1.0627 H   0  0  0  0  0  0  0  0  0  0  0  0
  -12.7428  -12.9114   -0.8649 H   0  0  0  0  0  0  0  0  0  0  0  0
   -6.5026  -14.2403    0.3418 H   0  0  0  0  0  0  0  0  0  0  0  0
   -6.1810  -11.6906    0.5907 H   0  0  0  0  0  0  0  0  0  0  0  0
   -6.0000   -8.2273   -0.4885 H   0  0  0  0  0  0  0  0  0  0  0  0
   -4.0312   -7.0615   -1.3076 H   0  0  0  0  0  0  0  0  0  0  0  0
   -0.8714   -0.5347    0.3707 H   0  0  0  0  0  0  0  0  0  0  0  0
   -0.6711   -0.5701    2.1061 H   0  0  0  0  0  0  0  0  0  0  0  0
   -1.9557   -1.4867    1.3560 H   0  0  0  0  0  0  0  0  0  0  0  0
  1  2  1  0  0  0  0
  1 86  1  0  0  0  0
  1 87  1  0  0  0  0
  1 88  1  0  0  0  0
  2  3  1  0  0  0  0
  2 89  1  0  0  0  0
  2 90  1  0  0  0  0
  3  4  1  0  0  0  0
  3 91  1  0  0  0  0
  3 92  1  0  0  0  0
  4  5  1  0  0  0  0
  4 84  1  0  0  0  0
  5  6  2  0  0  0  0
  6  7  1  0  0  0  0
  6 93  1  0  0  0  0
  7  8  1  0  0  0  0
  7 84  2  0  0  0  0
  8  9  2  0  0  0  0
  8 10  1  0  0  0  0
 10 11  1  0  0  0  0
 10 14  1  0  0  0  0
 11 12  1  0  0  0  0
 11 94  1  0  0  0  0
 11 95  1  0  0  0  0
 12 13  1  0  0  0  0
 12 96  1  0  0  0  0
 12 97  1  0  0  0  0
 13 14  1  0  0  0  0
 13 98  1  0  0  0  0
 13 99  1  0  0  0  0
 14 15  1  0  0  0  0
 14100  1  1  0  0  0
 15 16  2  0  0  0  0
 15 17  1  0  0  0  0
 17 18  1  0  0  0  0
 17101  1  0  0  0  0
 18 19  1  0  0  0  0
 18102  1  0  0  0  0
 18103  1  0  0  0  0
 19 20  1  0  0  0  0
 19104  1  0  0  0  0
 19105  1  0  0  0  0
 20 21  1  0  0  0  0
 20106  1  0  0  0  0
 20107  1  0  0  0  0
 21 22  1  0  0  0  0
 21108  1  0  0  0  0
 22 23  2  0  0  0  0
 22 24  1  0  0  0  0
 24 25  1  0  0  0  0
 24 83  2  0  0  0  0
 25 26  2  0  0  0  0
 25109  1  0  0  0  0
 26 27  1  0  0  0  0
 26110  1  0  0  0  0
 27 28  1  0  0  0  0
 27 82  2  0  0  0  0
 28 29  1  0  0  0  0
 28 76  2  0  0  0  0
 29 30  2  0  0  0  0
 29 81  1  0  0  0  0
 30 31  1  0  0  0  0
 31 32  2  0  0  0  0
 31 80  1  0  0  0  0
 32 33  1  0  0  0  0
 32 43  1  0  0  0  0
 33 34  1  0  0  0  0
 33 42  2  0  0  0  0
 34 35  2  0  0  0  0
 34111  1  0  0  0  0
 35 36  1  0  0  0  0
 35112  1  0  0  0  0
 36 37  1  0  0  0  0
 36 41  2  0  0  0  0
 37 38  2  0  0  0  0
 37 39  2  0  0  0  0
 37 40  1  0  0  0  0
 41 42  1  0  0  0  0
 41113  1  0  0  0  0
 42114  1  0  0  0  0
 43 44  2  0  0  0  0
 43 47  1  0  0  0  0
 44 45  1  0  0  0  0
 44115  1  0  0  0  0
 45 46  2  0  0  0  0
 45116  1  0  0  0  0
 46 47  1  0  0  0  0
 46 48  1  0  0  0  0
 47117  1  0  0  0  0
 48 49  1  0  0  0  0
 48 59  2  0  0  0  0
 49 50  1  0  0  0  0
 49 58  2  0  0  0  0
 50 51  2  0  0  0  0
 50118  1  0  0  0  0
 51 52  1  0  0  0  0
 51119  1  0  0  0  0
 52 53  1  0  0  0  0
 52 57  2  0  0  0  0
 53 54  2  0  0  0  0
 53 55  2  0  0  0  0
 53 56  1  0  0  0  0
 57 58  1  0  0  0  0
 57120  1  0  0  0  0
 58121  1  0  0  0  0
 59 60  1  0  0  0  0
 59 79  1  0  0  0  0
 60 61  2  0  0  0  0
 61 62  1  0  0  0  0
 61 78  1  0  0  0  0
 62 63  1  0  0  0  0
 62 73  2  0  0  0  0
 63 64  1  0  0  0  0
 63 72  2  0  0  0  0
 64 65  2  0  0  0  0
 64122  1  0  0  0  0
 65 66  1  0  0  0  0
 65123  1  0  0  0  0
 66 67  1  0  0  0  0
 66 71  2  0  0  0  0
 67 68  2  0  0  0  0
 67 69  2  0  0  0  0
 67 70  1  0  0  0  0
 71 72  1  0  0  0  0
 71124  1  0  0  0  0
 72125  1  0  0  0  0
 73 74  1  0  0  0  0
 73 77  1  0  0  0  0
 74 75  2  0  0  0  0
 74126  1  0  0  0  0
 75 76  1  0  0  0  0
 75127  1  0  0  0  0
 76 77  1  0  0  0  0
 77128  1  0  0  0  0
 78 79  2  0  0  0  0
 78129  1  0  0  0  0
 79130  1  0  0  0  0
 80 81  2  0  0  0  0
 80131  1  0  0  0  0
 81132  1  0  0  0  0
 82 83  1  0  0  0  0
 82133  1  0  0  0  0
 83134  1  0  0  0  0
 84 85  1  0  0  0  0
 85135  1  0  0  0  0
 85136  1  0  0  0  0
 85137  1  0  0  0  0
M  CHG  3  40  -1  56  -1  70  -1
M  END
$$$$
