3_2_8604
 OpenBabel04152301373D

121130  0  0  0  0  0  0  0  0999 V2000
    1.2611   -0.7696    0.5559 O   0  0  0  0  0  0  0  0  0  0  0  0
    2.4231   -0.3917    0.4234 C   0  0  0  0  0  0  0  0  0  0  0  0
    3.2998   -1.0760   -0.5445 C   0  0  0  0  0  0  0  0  0  0  0  0
    4.2656   -0.4714   -1.2540 C   0  0  0  0  0  0  0  0  0  0  0  0
    4.9603   -1.2183   -2.3297 C   0  0  0  0  0  0  0  0  0  0  0  0
    6.1882   -1.2399   -2.3376 O   0  0  0  0  0  0  0  0  0  0  0  0
    4.2262   -1.9067   -3.2514 N   0  0  0  0  0  0  0  0  0  0  0  0
    2.8692   -1.8246   -3.5677 C   0  0  0  0  0  0  0  0  0  0  0  0
    2.1301   -0.6550   -3.4193 C   0  0  0  0  0  0  0  0  0  0  0  0
    0.7505   -0.7029   -3.5918 C   0  0  0  0  0  0  0  0  0  0  0  0
    0.1551   -1.9079   -3.9327 C   0  0  0  0  0  0  0  0  0  0  0  0
    0.9765   -3.0035   -4.1368 C   0  0  0  0  0  0  0  0  0  0  0  0
    2.3211   -2.9784   -3.9927 N   0  0  0  0  0  0  0  0  0  0  0  0
    2.9925    0.6191    1.1416 N   0  0  0  0  0  0  0  0  0  0  0  0
    2.2511    1.3209    2.1688 C   0  0  0  0  0  0  0  0  0  0  0  0
    2.4065    0.6669    3.5386 C   0  0  0  0  0  0  0  0  0  0  0  0
    3.8486    0.5799    4.0315 C   0  0  0  0  0  0  0  0  0  0  0  0
    4.4893    1.8807    4.1483 N   0  0  0  0  0  0  0  0  0  0  0  0
    5.2869    2.3856    5.1432 C   0  0  0  0  0  0  0  0  0  0  0  0
    5.6184    3.5684    5.0955 O   0  0  0  0  0  0  0  0  0  0  0  0
    5.7245    1.5389    6.2757 C   0  0  0  0  0  0  0  0  0  0  0  0
    5.7343    2.1015    7.5553 C   0  0  0  0  0  0  0  0  0  0  0  0
    6.1263    1.3315    8.6520 C   0  0  0  0  0  0  0  0  0  0  0  0
    6.4778   -0.0185    8.4870 C   0  0  0  0  0  0  0  0  0  0  0  0
    6.8244   -0.8542    9.6657 C   0  0  0  0  0  0  0  0  0  0  0  0
    8.2160   -1.3993    9.8430 C   0  0  0  0  0  0  0  0  0  0  0  0
    8.7028   -2.1058   10.8320 N   0  0  0  0  0  0  0  0  0  0  0  0
   10.0224   -2.3793   10.4912 C   0  0  0  0  0  0  0  0  0  0  0  0
   10.9694   -3.0309   11.2092 C   0  0  0  0  0  0  0  0  0  0  0  0
   12.3366   -3.1666   10.5907 C   0  0  0  0  0  0  0  0  0  0  0  0
   13.1814   -2.0502   10.4492 C   0  0  0  0  0  0  0  0  0  0  0  0
   14.4436   -2.1860    9.8651 C   0  0  0  0  0  0  0  0  0  0  0  0
   14.8783   -3.4470    9.4470 C   0  0  0  0  0  0  0  0  0  0  0  0
   16.5281   -3.5987    8.7078 S   0  0  0  0  0  0  0  0  0  0  0  0
   16.3142   -3.0329    7.3781 O   0  0  0  0  0  0  0  0  0  0  0  0
   17.3577   -2.7976    9.6043 O   0  0  0  0  0  0  0  0  0  0  0  0
   16.7910   -5.0353    8.7389 O   0  5  0  0  0  0  0  0  0  0  0  0
   14.0708   -4.5739    9.6160 C   0  0  0  0  0  0  0  0  0  0  0  0
   12.7978   -4.4292   10.1766 C   0  0  0  0  0  0  0  0  0  0  0  0
   10.7501   -3.5954   12.5154 C   0  0  0  0  0  0  0  0  0  0  0  0
   11.6604   -4.2273   13.3456 C   0  0  0  0  0  0  0  0  0  0  0  0
   10.9859   -4.6451   14.4990 C   0  0  0  0  0  0  0  0  0  0  0  0
    9.6676   -4.2291   14.4087 C   0  0  0  0  0  0  0  0  0  0  0  0
    9.5350   -3.5964   13.1834 N   0  0  0  0  0  0  0  0  0  0  0  0
    8.6080   -4.3903   15.3714 C   0  0  0  0  0  0  0  0  0  0  0  0
    8.9347   -5.0450   16.6870 C   0  0  0  0  0  0  0  0  0  0  0  0
    8.4550   -6.3290   17.0021 C   0  0  0  0  0  0  0  0  0  0  0  0
    8.7295   -6.8992   18.2480 C   0  0  0  0  0  0  0  0  0  0  0  0
    9.5121   -6.1981   19.1707 C   0  0  0  0  0  0  0  0  0  0  0  0
    9.8575   -6.9550   20.7825 S   0  0  0  0  0  0  0  0  0  0  0  0
    8.6020   -6.7352   21.4949 O   0  0  0  0  0  0  0  0  0  0  0  0
   10.1469   -8.3437   20.4330 O   0  0  0  0  0  0  0  0  0  0  0  0
   11.0005   -6.1946   21.2828 O   0  5  0  0  0  0  0  0  0  0  0  0
   10.0394   -4.9441   18.8550 C   0  0  0  0  0  0  0  0  0  0  0  0
    9.7400   -4.3657   17.6190 C   0  0  0  0  0  0  0  0  0  0  0  0
    7.3326   -3.9629   15.1972 C   0  0  0  0  0  0  0  0  0  0  0  0
    6.7692   -3.3113   14.1058 N   0  0  0  0  0  0  0  0  0  0  0  0
    5.5078   -3.1267   14.4145 C   0  0  0  0  0  0  0  0  0  0  0  0
    4.4326   -2.4380   13.6218 C   0  0  0  0  0  0  0  0  0  0  0  0
    3.0476   -2.3234   14.1522 C   0  0  0  0  0  0  0  0  0  0  0  0
    2.7665   -1.4664   15.2308 C   0  0  0  0  0  0  0  0  0  0  0  0
    1.4654   -1.3600   15.7300 C   0  0  0  0  0  0  0  0  0  0  0  0
    0.4361   -2.0948   15.1351 C   0  0  0  0  0  0  0  0  0  0  0  0
   -1.2557   -1.8999   15.7614 S   0  0  0  0  0  0  0  0  0  0  0  0
   -1.2161   -2.6848   16.9909 O   0  0  0  0  0  0  0  0  0  0  0  0
   -1.3652   -0.4536   15.9360 O   0  0  0  0  0  0  0  0  0  0  0  0
   -2.0807   -2.4531   14.6895 O   0  5  0  0  0  0  0  0  0  0  0  0
    0.6927   -2.9348   14.0495 C   0  0  0  0  0  0  0  0  0  0  0  0
    1.9995   -3.0581   13.5695 C   0  0  0  0  0  0  0  0  0  0  0  0
    4.7431   -1.8844   12.4340 C   0  0  0  0  0  0  0  0  0  0  0  0
    3.8156   -1.1467   11.5824 C   0  0  0  0  0  0  0  0  0  0  0  0
    4.4674   -0.7248   10.4871 C   0  0  0  0  0  0  0  0  0  0  0  0
    5.8695   -1.1422   10.5725 C   0  0  0  0  0  0  0  0  0  0  0  0
    5.9342   -1.8465   11.7484 N   0  0  0  0  0  0  0  0  0  0  0  0
    5.1206   -3.6610   15.7269 C   0  0  0  0  0  0  0  0  0  0  0  0
    6.2789   -4.1207   16.1795 C   0  0  0  0  0  0  0  0  0  0  0  0
   10.2455   -1.8049    9.1818 C   0  0  0  0  0  0  0  0  0  0  0  0
    9.1801   -1.1365    8.7630 C   0  0  0  0  0  0  0  0  0  0  0  0
    6.4828   -0.5668    7.1966 C   0  0  0  0  0  0  0  0  0  0  0  0
    6.1546    0.2212    6.0923 C   0  0  0  0  0  0  0  0  0  0  0  0
    3.1615   -2.0888   -0.6862 H   0  0  0  0  0  0  0  0  0  0  0  0
    4.5229    0.5074   -1.0519 H   0  0  0  0  0  0  0  0  0  0  0  0
    4.7346   -2.5661   -3.7768 H   0  0  0  0  0  0  0  0  0  0  0  0
    2.5982    0.2344   -3.1849 H   0  0  0  0  0  0  0  0  0  0  0  0
    0.1780    0.1468   -3.4677 H   0  0  0  0  0  0  0  0  0  0  0  0
   -0.8692   -1.9857   -4.0313 H   0  0  0  0  0  0  0  0  0  0  0  0
    0.5358   -3.8939   -4.4160 H   0  0  0  0  0  0  0  0  0  0  0  0
    3.9249    0.8762    0.9580 H   0  0  0  0  0  0  0  0  0  0  0  0
    1.2144    1.3246    1.9041 H   0  0  0  0  0  0  0  0  0  0  0  0
    2.6395    2.3158    2.2333 H   0  0  0  0  0  0  0  0  0  0  0  0
    2.0105   -0.3256    3.4833 H   0  0  0  0  0  0  0  0  0  0  0  0
    1.8805    1.2853    4.2356 H   0  0  0  0  0  0  0  0  0  0  0  0
    4.4093   -0.0155    3.3416 H   0  0  0  0  0  0  0  0  0  0  0  0
    3.8269    0.1451    5.0089 H   0  0  0  0  0  0  0  0  0  0  0  0
    4.3247    2.4941    3.3960 H   0  0  0  0  0  0  0  0  0  0  0  0
    5.4521    3.0851    7.6892 H   0  0  0  0  0  0  0  0  0  0  0  0
    6.1581    1.7576    9.5914 H   0  0  0  0  0  0  0  0  0  0  0  0
   12.8666   -1.1244   10.7792 H   0  0  0  0  0  0  0  0  0  0  0  0
   15.0509   -1.3606    9.7432 H   0  0  0  0  0  0  0  0  0  0  0  0
   14.4106   -5.5053    9.3297 H   0  0  0  0  0  0  0  0  0  0  0  0
   12.1911   -5.2566   10.2875 H   0  0  0  0  0  0  0  0  0  0  0  0
   12.6637   -4.3664   13.1481 H   0  0  0  0  0  0  0  0  0  0  0  0
   11.4002   -5.1731   15.2830 H   0  0  0  0  0  0  0  0  0  0  0  0
    8.7005   -3.2049   12.8377 H   0  0  0  0  0  0  0  0  0  0  0  0
    7.8973   -6.8528   16.3095 H   0  0  0  0  0  0  0  0  0  0  0  0
    8.3570   -7.8318   18.4856 H   0  0  0  0  0  0  0  0  0  0  0  0
   10.6447   -4.4492   19.5286 H   0  0  0  0  0  0  0  0  0  0  0  0
   10.1130   -3.4317   17.3877 H   0  0  0  0  0  0  0  0  0  0  0  0
    3.5259   -0.9123   15.6567 H   0  0  0  0  0  0  0  0  0  0  0  0
    1.2660   -0.7428   16.5327 H   0  0  0  0  0  0  0  0  0  0  0  0
   -0.0764   -3.4603   13.6052 H   0  0  0  0  0  0  0  0  0  0  0  0
    2.1970   -3.6937   12.7808 H   0  0  0  0  0  0  0  0  0  0  0  0
    2.8189   -0.9767   11.7889 H   0  0  0  0  0  0  0  0  0  0  0  0
    4.0480   -0.1917    9.7093 H   0  0  0  0  0  0  0  0  0  0  0  0
    6.7556   -2.2832   12.0705 H   0  0  0  0  0  0  0  0  0  0  0  0
    4.1923   -3.6749   16.1775 H   0  0  0  0  0  0  0  0  0  0  0  0
    6.4132   -4.5383   17.1136 H   0  0  0  0  0  0  0  0  0  0  0  0
   11.1207   -1.9029    8.6438 H   0  0  0  0  0  0  0  0  0  0  0  0
    9.0586   -0.5778    7.9039 H   0  0  0  0  0  0  0  0  0  0  0  0
    6.7308   -1.5595    7.0624 H   0  0  0  0  0  0  0  0  0  0  0  0
    6.2294   -0.1690    5.1398 H   0  0  0  0  0  0  0  0  0  0  0  0
  1  2  2  0  0  0  0
  2  3  1  0  0  0  0
  2 14  1  0  0  0  0
  3  4  2  0  0  0  0
  3 81  1  0  0  0  0
  4  5  1  0  0  0  0
  4 82  1  0  0  0  0
  5  6  2  0  0  0  0
  5  7  1  0  0  0  0
  7  8  1  0  0  0  0
  7 83  1  0  0  0  0
  8  9  1  0  0  0  0
  8 13  2  0  0  0  0
  9 10  2  0  0  0  0
  9 84  1  0  0  0  0
 10 11  1  0  0  0  0
 10 85  1  0  0  0  0
 11 12  2  0  0  0  0
 11 86  1  0  0  0  0
 12 13  1  0  0  0  0
 12 87  1  0  0  0  0
 14 15  1  0  0  0  0
 14 88  1  0  0  0  0
 15 16  1  0  0  0  0
 15 89  1  0  0  0  0
 15 90  1  0  0  0  0
 16 17  1  0  0  0  0
 16 91  1  0  0  0  0
 16 92  1  0  0  0  0
 17 18  1  0  0  0  0
 17 93  1  0  0  0  0
 17 94  1  0  0  0  0
 18 19  1  0  0  0  0
 18 95  1  0  0  0  0
 19 20  2  0  0  0  0
 19 21  1  0  0  0  0
 21 22  1  0  0  0  0
 21 80  2  0  0  0  0
 22 23  2  0  0  0  0
 22 96  1  0  0  0  0
 23 24  1  0  0  0  0
 23 97  1  0  0  0  0
 24 25  1  0  0  0  0
 24 79  2  0  0  0  0
 25 26  1  0  0  0  0
 25 73  2  0  0  0  0
 26 27  2  0  0  0  0
 26 78  1  0  0  0  0
 27 28  1  0  0  0  0
 28 29  2  0  0  0  0
 28 77  1  0  0  0  0
 29 30  1  0  0  0  0
 29 40  1  0  0  0  0
 30 31  1  0  0  0  0
 30 39  2  0  0  0  0
 31 32  2  0  0  0  0
 31 98  1  0  0  0  0
 32 33  1  0  0  0  0
 32 99  1  0  0  0  0
 33 34  1  0  0  0  0
 33 38  2  0  0  0  0
 34 35  2  0  0  0  0
 34 36  2  0  0  0  0
 34 37  1  0  0  0  0
 38 39  1  0  0  0  0
 38100  1  0  0  0  0
 39101  1  0  0  0  0
 40 41  2  0  0  0  0
 40 44  1  0  0  0  0
 41 42  1  0  0  0  0
 41102  1  0  0  0  0
 42 43  2  0  0  0  0
 42103  1  0  0  0  0
 43 44  1  0  0  0  0
 43 45  1  0  0  0  0
 44104  1  0  0  0  0
 45 46  1  0  0  0  0
 45 56  2  0  0  0  0
 46 47  1  0  0  0  0
 46 55  2  0  0  0  0
 47 48  2  0  0  0  0
 47105  1  0  0  0  0
 48 49  1  0  0  0  0
 48106  1  0  0  0  0
 49 50  1  0  0  0  0
 49 54  2  0  0  0  0
 50 51  2  0  0  0  0
 50 52  2  0  0  0  0
 50 53  1  0  0  0  0
 54 55  1  0  0  0  0
 54107  1  0  0  0  0
 55108  1  0  0  0  0
 56 57  1  0  0  0  0
 56 76  1  0  0  0  0
 57 58  2  0  0  0  0
 58 59  1  0  0  0  0
 58 75  1  0  0  0  0
 59 60  1  0  0  0  0
 59 70  2  0  0  0  0
 60 61  1  0  0  0  0
 60 69  2  0  0  0  0
 61 62  2  0  0  0  0
 61109  1  0  0  0  0
 62 63  1  0  0  0  0
 62110  1  0  0  0  0
 63 64  1  0  0  0  0
 63 68  2  0  0  0  0
 64 65  2  0  0  0  0
 64 66  2  0  0  0  0
 64 67  1  0  0  0  0
 68 69  1  0  0  0  0
 68111  1  0  0  0  0
 69112  1  0  0  0  0
 70 71  1  0  0  0  0
 70 74  1  0  0  0  0
 71 72  2  0  0  0  0
 71113  1  0  0  0  0
 72 73  1  0  0  0  0
 72114  1  0  0  0  0
 73 74  1  0  0  0  0
 74115  1  0  0  0  0
 75 76  2  0  0  0  0
 75116  1  0  0  0  0
 76117  1  0  0  0  0
 77 78  2  0  0  0  0
 77118  1  0  0  0  0
 78119  1  0  0  0  0
 79 80  1  0  0  0  0
 79120  1  0  0  0  0
 80121  1  0  0  0  0
M  CHG  3  37  -1  53  -1  67  -1
M  END
$$$$
