3_2_1405
 OpenBabel04152301373D

131141  0  0  0  0  0  0  0  0999 V2000
    0.4201   -0.6762    0.8719 O   0  0  0  0  0  0  0  0  0  0  0  0
    1.6435   -0.7701    0.9649 C   0  0  0  0  0  0  0  0  0  0  0  0
    2.4276    0.1885    1.8542 C   0  0  0  0  0  0  0  0  0  0  0  0
    3.5194   -0.2884    2.7820 C   0  0  0  0  0  0  0  0  0  0  0  0
    3.7656   -1.6171    3.1337 C   0  0  0  0  0  0  0  0  0  0  0  0
    4.8119   -1.9310    4.0109 C   0  0  0  0  0  0  0  0  0  0  0  0
    5.5972   -0.9240    4.5736 C   0  0  0  0  0  0  0  0  0  0  0  0
    5.3429    0.4047    4.2607 C   0  0  0  0  0  0  0  0  0  0  0  0
    4.3163    0.7159    3.3719 C   0  0  0  0  0  0  0  0  0  0  0  0
    2.3903   -1.6445    0.1940 N   0  0  0  0  0  0  0  0  0  0  0  0
    1.8699   -2.3850   -0.9008 C   0  0  0  0  0  0  0  0  0  0  0  0
    2.2904   -3.7257   -0.9653 C   0  0  0  0  0  0  0  0  0  0  0  0
    1.7564   -4.6010   -1.9142 C   0  0  0  0  0  0  0  0  0  0  0  0
    2.2496   -6.2495   -1.9316 Cl  0  0  0  0  0  0  0  0  0  0  0  0
    0.8160   -4.1576   -2.8328 C   0  0  0  0  0  0  0  0  0  0  0  0
    0.4490   -2.8129   -2.8315 C   0  0  0  0  0  0  0  0  0  0  0  0
    0.9918   -1.9002   -1.8971 C   0  0  0  0  0  0  0  0  0  0  0  0
    0.6565   -0.4785   -2.2278 C   0  0  0  0  0  0  0  0  0  0  0  0
   -0.4844   -0.1997   -2.6001 O   0  0  0  0  0  0  0  0  0  0  0  0
    1.6248    0.5001   -2.3240 N   0  0  0  0  0  0  0  0  0  0  0  0
    2.9773    0.4625   -1.8258 C   0  0  0  0  0  0  0  0  0  0  0  0
    3.9128    1.5702   -2.2600 C   0  0  0  0  0  0  0  0  0  0  0  0
    3.4757    2.9771   -1.8654 C   0  0  0  0  0  0  0  0  0  0  0  0
    3.3469    3.2117   -0.4263 N   0  0  0  0  0  0  0  0  0  0  0  0
    4.1519    3.8586    0.4923 C   0  0  0  0  0  0  0  0  0  0  0  0
    3.8500    3.8353    1.6764 O   0  0  0  0  0  0  0  0  0  0  0  0
    5.3943    4.5437    0.0645 C   0  0  0  0  0  0  0  0  0  0  0  0
    6.5459    4.4628    0.8571 C   0  0  0  0  0  0  0  0  0  0  0  0
    7.7533    5.0009    0.3914 C   0  0  0  0  0  0  0  0  0  0  0  0
    7.8280    5.5531   -0.8958 C   0  0  0  0  0  0  0  0  0  0  0  0
    9.0932    6.0432   -1.5076 C   0  0  0  0  0  0  0  0  0  0  0  0
    9.1543    7.4548   -2.0376 C   0  0  0  0  0  0  0  0  0  0  0  0
   10.0349    8.0050   -2.8321 N   0  0  0  0  0  0  0  0  0  0  0  0
    9.5485    9.2791   -3.1069 C   0  0  0  0  0  0  0  0  0  0  0  0
   10.1209   10.2694   -3.8319 C   0  0  0  0  0  0  0  0  0  0  0  0
    9.3490   11.5539   -3.9919 C   0  0  0  0  0  0  0  0  0  0  0  0
    9.1149   12.4047   -2.8959 C   0  0  0  0  0  0  0  0  0  0  0  0
    8.3706   13.5762   -3.0537 C   0  0  0  0  0  0  0  0  0  0  0  0
    7.8912   13.9236   -4.3197 C   0  0  0  0  0  0  0  0  0  0  0  0
    6.9429   15.4592   -4.4971 S   0  0  0  0  0  0  0  0  0  0  0  0
    5.6662   15.0951   -3.8876 O   0  0  0  0  0  0  0  0  0  0  0  0
    7.7456   16.4203   -3.7451 O   0  0  0  0  0  0  0  0  0  0  0  0
    6.9042   15.6782   -5.9408 O   0  5  0  0  0  0  0  0  0  0  0  0
    8.1540   13.1182   -5.4296 C   0  0  0  0  0  0  0  0  0  0  0  0
    8.8699   11.9290   -5.2606 C   0  0  0  0  0  0  0  0  0  0  0  0
   11.4175   10.1631   -4.4430 C   0  0  0  0  0  0  0  0  0  0  0  0
   12.1272   11.1315   -5.1301 C   0  0  0  0  0  0  0  0  0  0  0  0
   13.3319   10.5652   -5.5584 C   0  0  0  0  0  0  0  0  0  0  0  0
   13.3945    9.2614   -5.0918 C   0  0  0  0  0  0  0  0  0  0  0  0
   12.2075    9.0236   -4.4226 N   0  0  0  0  0  0  0  0  0  0  0  0
   14.4620    8.3066   -5.2487 C   0  0  0  0  0  0  0  0  0  0  0  0
   15.6992    8.7665   -5.9701 C   0  0  0  0  0  0  0  0  0  0  0  0
   15.9903    8.3276   -7.2728 C   0  0  0  0  0  0  0  0  0  0  0  0
   17.1150    8.8141   -7.9440 C   0  0  0  0  0  0  0  0  0  0  0  0
   17.9359    9.7610   -7.3223 C   0  0  0  0  0  0  0  0  0  0  0  0
   19.3543   10.4225   -8.2385 S   0  0  0  0  0  0  0  0  0  0  0  0
   20.2890    9.3014   -8.2014 O   0  0  0  0  0  0  0  0  0  0  0  0
   18.7795   10.7191   -9.5484 O   0  0  0  0  0  0  0  0  0  0  0  0
   19.7537   11.5933   -7.4607 O   0  5  0  0  0  0  0  0  0  0  0  0
   17.6495   10.2232   -6.0364 C   0  0  0  0  0  0  0  0  0  0  0  0
   16.5400    9.7149   -5.3584 C   0  0  0  0  0  0  0  0  0  0  0  0
   14.4492    7.0376   -4.7718 C   0  0  0  0  0  0  0  0  0  0  0  0
   13.4623    6.3869   -4.0396 N   0  0  0  0  0  0  0  0  0  0  0  0
   13.9182    5.1756   -3.8242 C   0  0  0  0  0  0  0  0  0  0  0  0
   13.2803    4.0495   -3.0563 C   0  0  0  0  0  0  0  0  0  0  0  0
   13.9517    2.7246   -2.9439 C   0  0  0  0  0  0  0  0  0  0  0  0
   15.1065    2.5821   -2.1539 C   0  0  0  0  0  0  0  0  0  0  0  0
   15.7429    1.3423   -2.0425 C   0  0  0  0  0  0  0  0  0  0  0  0
   15.2104    0.2318   -2.7024 C   0  0  0  0  0  0  0  0  0  0  0  0
   16.0209   -1.3790   -2.4959 S   0  0  0  0  0  0  0  0  0  0  0  0
   17.2211   -1.2219   -3.3108 O   0  0  0  0  0  0  0  0  0  0  0  0
   16.2382   -1.4398   -1.0525 O   0  0  0  0  0  0  0  0  0  0  0  0
   15.0331   -2.3259   -3.0089 O   0  5  0  0  0  0  0  0  0  0  0  0
   14.0539    0.3482   -3.4762 C   0  0  0  0  0  0  0  0  0  0  0  0
   13.4360    1.5963   -3.6074 C   0  0  0  0  0  0  0  0  0  0  0  0
   12.0961    4.2605   -2.4483 C   0  0  0  0  0  0  0  0  0  0  0  0
   11.3452    3.2608   -1.6970 C   0  0  0  0  0  0  0  0  0  0  0  0
   10.1768    3.7939   -1.3038 C   0  0  0  0  0  0  0  0  0  0  0  0
   10.1195    5.1959   -1.7259 C   0  0  0  0  0  0  0  0  0  0  0  0
   11.3081    5.3870   -2.3880 N   0  0  0  0  0  0  0  0  0  0  0  0
   15.2331    4.9099   -4.4241 C   0  0  0  0  0  0  0  0  0  0  0  0
   15.5289    6.0892   -4.9544 C   0  0  0  0  0  0  0  0  0  0  0  0
    8.2724    9.3995   -2.4387 C   0  0  0  0  0  0  0  0  0  0  0  0
    8.0389    8.3462   -1.6714 C   0  0  0  0  0  0  0  0  0  0  0  0
    6.6478    5.6750   -1.6438 C   0  0  0  0  0  0  0  0  0  0  0  0
    5.4300    5.2698   -1.1194 C   0  0  0  0  0  0  0  0  0  0  0  0
    1.7059    0.6823    2.4708 H   0  0  0  0  0  0  0  0  0  0  0  0
    2.9782    0.7596    1.1362 H   0  0  0  0  0  0  0  0  0  0  0  0
    3.1753   -2.3698    2.7465 H   0  0  0  0  0  0  0  0  0  0  0  0
    5.0040   -2.9179    4.2435 H   0  0  0  0  0  0  0  0  0  0  0  0
    6.3643   -1.1660    5.2201 H   0  0  0  0  0  0  0  0  0  0  0  0
    5.9102    1.1561    4.6834 H   0  0  0  0  0  0  0  0  0  0  0  0
    4.1341    1.7047    3.1392 H   0  0  0  0  0  0  0  0  0  0  0  0
    3.3418   -1.7604    0.4187 H   0  0  0  0  0  0  0  0  0  0  0  0
    3.0035   -4.0676   -0.3023 H   0  0  0  0  0  0  0  0  0  0  0  0
    0.3940   -4.8143   -3.5078 H   0  0  0  0  0  0  0  0  0  0  0  0
   -0.2340   -2.4757   -3.5278 H   0  0  0  0  0  0  0  0  0  0  0  0
    1.3594    1.3256   -2.7902 H   0  0  0  0  0  0  0  0  0  0  0  0
    3.4095   -0.4641   -2.1413 H   0  0  0  0  0  0  0  0  0  0  0  0
    2.8815    0.5858   -0.7673 H   0  0  0  0  0  0  0  0  0  0  0  0
    3.9955    1.5355   -3.3262 H   0  0  0  0  0  0  0  0  0  0  0  0
    4.8394    1.3931   -1.7551 H   0  0  0  0  0  0  0  0  0  0  0  0
    2.5247    3.1668   -2.3176 H   0  0  0  0  0  0  0  0  0  0  0  0
    4.2501    3.6333   -2.2040 H   0  0  0  0  0  0  0  0  0  0  0  0
    2.5255    2.8346   -0.0360 H   0  0  0  0  0  0  0  0  0  0  0  0
    6.5056    4.0078    1.7825 H   0  0  0  0  0  0  0  0  0  0  0  0
    8.5891    4.9908    0.9967 H   0  0  0  0  0  0  0  0  0  0  0  0
    9.4960   12.1613   -1.9683 H   0  0  0  0  0  0  0  0  0  0  0  0
    8.1760   14.1813   -2.2407 H   0  0  0  0  0  0  0  0  0  0  0  0
    7.8229   13.3980   -6.3661 H   0  0  0  0  0  0  0  0  0  0  0  0
    9.0487   11.3203   -6.0746 H   0  0  0  0  0  0  0  0  0  0  0  0
   11.8209   12.1027   -5.2975 H   0  0  0  0  0  0  0  0  0  0  0  0
   14.0526   11.0380   -6.1259 H   0  0  0  0  0  0  0  0  0  0  0  0
   11.9602    8.1718   -3.9953 H   0  0  0  0  0  0  0  0  0  0  0  0
   15.3713    7.6436   -7.7354 H   0  0  0  0  0  0  0  0  0  0  0  0
   17.3389    8.4767   -8.8932 H   0  0  0  0  0  0  0  0  0  0  0  0
   18.2518   10.9334   -5.5916 H   0  0  0  0  0  0  0  0  0  0  0  0
   16.3345   10.0376   -4.3999 H   0  0  0  0  0  0  0  0  0  0  0  0
   15.4873    3.3996   -1.6522 H   0  0  0  0  0  0  0  0  0  0  0  0
   16.6006    1.2479   -1.4764 H   0  0  0  0  0  0  0  0  0  0  0  0
   13.6581   -0.4801   -3.9476 H   0  0  0  0  0  0  0  0  0  0  0  0
   12.5939    1.6903   -4.1965 H   0  0  0  0  0  0  0  0  0  0  0  0
   11.6610    2.2984   -1.4993 H   0  0  0  0  0  0  0  0  0  0  0  0
    9.4364    3.2949   -0.7862 H   0  0  0  0  0  0  0  0  0  0  0  0
   11.5715    6.2496   -2.7826 H   0  0  0  0  0  0  0  0  0  0  0  0
   15.7819    4.0359   -4.4310 H   0  0  0  0  0  0  0  0  0  0  0  0
   16.4160    6.3039   -5.4361 H   0  0  0  0  0  0  0  0  0  0  0  0
    7.6293   10.1996   -2.5455 H   0  0  0  0  0  0  0  0  0  0  0  0
    7.2759    8.1901   -0.9943 H   0  0  0  0  0  0  0  0  0  0  0  0
    6.6864    6.0711   -2.5960 H   0  0  0  0  0  0  0  0  0  0  0  0
    4.5521    5.5070   -1.6073 H   0  0  0  0  0  0  0  0  0  0  0  0
  1  2  2  0  0  0  0
  2  3  1  0  0  0  0
  2 10  1  0  0  0  0
  3  4  1  0  0  0  0
  3 87  1  0  0  0  0
  3 88  1  0  0  0  0
  4  5  1  0  0  0  0
  4  9  2  0  0  0  0
  5  6  2  0  0  0  0
  5 89  1  0  0  0  0
  6  7  1  0  0  0  0
  6 90  1  0  0  0  0
  7  8  2  0  0  0  0
  7 91  1  0  0  0  0
  8  9  1  0  0  0  0
  8 92  1  0  0  0  0
  9 93  1  0  0  0  0
 10 11  1  0  0  0  0
 10 94  1  0  0  0  0
 11 12  1  0  0  0  0
 11 17  2  0  0  0  0
 12 13  2  0  0  0  0
 12 95  1  0  0  0  0
 13 14  1  0  0  0  0
 13 15  1  0  0  0  0
 15 16  2  0  0  0  0
 15 96  1  0  0  0  0
 16 17  1  0  0  0  0
 16 97  1  0  0  0  0
 17 18  1  0  0  0  0
 18 19  2  0  0  0  0
 18 20  1  0  0  0  0
 20 21  1  0  0  0  0
 20 98  1  0  0  0  0
 21 22  1  0  0  0  0
 21 99  1  0  0  0  0
 21100  1  0  0  0  0
 22 23  1  0  0  0  0
 22101  1  0  0  0  0
 22102  1  0  0  0  0
 23 24  1  0  0  0  0
 23103  1  0  0  0  0
 23104  1  0  0  0  0
 24 25  1  0  0  0  0
 24105  1  0  0  0  0
 25 26  2  0  0  0  0
 25 27  1  0  0  0  0
 27 28  1  0  0  0  0
 27 86  2  0  0  0  0
 28 29  2  0  0  0  0
 28106  1  0  0  0  0
 29 30  1  0  0  0  0
 29107  1  0  0  0  0
 30 31  1  0  0  0  0
 30 85  2  0  0  0  0
 31 32  1  0  0  0  0
 31 79  2  0  0  0  0
 32 33  2  0  0  0  0
 32 84  1  0  0  0  0
 33 34  1  0  0  0  0
 34 35  2  0  0  0  0
 34 83  1  0  0  0  0
 35 36  1  0  0  0  0
 35 46  1  0  0  0  0
 36 37  1  0  0  0  0
 36 45  2  0  0  0  0
 37 38  2  0  0  0  0
 37108  1  0  0  0  0
 38 39  1  0  0  0  0
 38109  1  0  0  0  0
 39 40  1  0  0  0  0
 39 44  2  0  0  0  0
 40 41  2  0  0  0  0
 40 42  2  0  0  0  0
 40 43  1  0  0  0  0
 44 45  1  0  0  0  0
 44110  1  0  0  0  0
 45111  1  0  0  0  0
 46 47  2  0  0  0  0
 46 50  1  0  0  0  0
 47 48  1  0  0  0  0
 47112  1  0  0  0  0
 48 49  2  0  0  0  0
 48113  1  0  0  0  0
 49 50  1  0  0  0  0
 49 51  1  0  0  0  0
 50114  1  0  0  0  0
 51 52  1  0  0  0  0
 51 62  2  0  0  0  0
 52 53  1  0  0  0  0
 52 61  2  0  0  0  0
 53 54  2  0  0  0  0
 53115  1  0  0  0  0
 54 55  1  0  0  0  0
 54116  1  0  0  0  0
 55 56  1  0  0  0  0
 55 60  2  0  0  0  0
 56 57  2  0  0  0  0
 56 58  2  0  0  0  0
 56 59  1  0  0  0  0
 60 61  1  0  0  0  0
 60117  1  0  0  0  0
 61118  1  0  0  0  0
 62 63  1  0  0  0  0
 62 82  1  0  0  0  0
 63 64  2  0  0  0  0
 64 65  1  0  0  0  0
 64 81  1  0  0  0  0
 65 66  1  0  0  0  0
 65 76  2  0  0  0  0
 66 67  1  0  0  0  0
 66 75  2  0  0  0  0
 67 68  2  0  0  0  0
 67119  1  0  0  0  0
 68 69  1  0  0  0  0
 68120  1  0  0  0  0
 69 70  1  0  0  0  0
 69 74  2  0  0  0  0
 70 71  2  0  0  0  0
 70 72  2  0  0  0  0
 70 73  1  0  0  0  0
 74 75  1  0  0  0  0
 74121  1  0  0  0  0
 75122  1  0  0  0  0
 76 77  1  0  0  0  0
 76 80  1  0  0  0  0
 77 78  2  0  0  0  0
 77123  1  0  0  0  0
 78 79  1  0  0  0  0
 78124  1  0  0  0  0
 79 80  1  0  0  0  0
 80125  1  0  0  0  0
 81 82  2  0  0  0  0
 81126  1  0  0  0  0
 82127  1  0  0  0  0
 83 84  2  0  0  0  0
 83128  1  0  0  0  0
 84129  1  0  0  0  0
 85 86  1  0  0  0  0
 85130  1  0  0  0  0
 86131  1  0  0  0  0
M  CHG  3  43  -1  59  -1  73  -1
M  END
$$$$
