3_2_2616
 OpenBabel04152301363D

133142  0  0  0  0  0  0  0  0999 V2000
    0.7217    0.0823   -0.5505 C   0  0  0  0  0  0  0  0  0  0  0  0
    0.4105   -1.3392   -0.1038 C   0  0  0  0  0  0  0  0  0  0  0  0
    1.2286   -1.7966    1.1103 C   0  0  0  0  0  0  0  0  0  0  0  0
    0.6329   -1.4725    2.4154 N   0  0  0  0  0  0  0  0  0  0  0  0
   -0.1441   -2.5296    3.0763 C   0  0  0  0  0  0  0  0  0  0  0  0
    0.3960   -2.9775    4.4450 C   0  0  0  0  0  0  0  0  0  0  0  0
   -0.2506   -2.7974    5.4800 O   0  0  0  0  0  0  0  0  0  0  0  0
    1.5911   -3.6137    4.5608 N   0  0  0  0  0  0  0  0  0  0  0  0
    2.4782   -4.0935    3.5250 C   0  0  0  0  0  0  0  0  0  0  0  0
    3.6976   -3.2012    3.3383 C   0  0  0  0  0  0  0  0  0  0  0  0
    4.5862   -3.1005    4.5748 C   0  0  0  0  0  0  0  0  0  0  0  0
    5.0524   -4.4020    5.0346 N   0  0  0  0  0  0  0  0  0  0  0  0
    6.3145   -4.9406    5.0481 C   0  0  0  0  0  0  0  0  0  0  0  0
    6.4526   -6.1428    5.2523 O   0  0  0  0  0  0  0  0  0  0  0  0
    7.4965   -4.0853    4.8131 C   0  0  0  0  0  0  0  0  0  0  0  0
    8.5433   -4.5754    4.0276 C   0  0  0  0  0  0  0  0  0  0  0  0
    9.6573   -3.7706    3.7780 C   0  0  0  0  0  0  0  0  0  0  0  0
    9.7109   -2.4589    4.2763 C   0  0  0  0  0  0  0  0  0  0  0  0
   10.8558   -1.5624    3.9780 C   0  0  0  0  0  0  0  0  0  0  0  0
   11.7308   -1.0601    5.0952 C   0  0  0  0  0  0  0  0  0  0  0  0
   12.7241   -0.2103    5.0458 N   0  0  0  0  0  0  0  0  0  0  0  0
   13.1539   -0.0540    6.3587 C   0  0  0  0  0  0  0  0  0  0  0  0
   14.1910    0.6783    6.8305 C   0  0  0  0  0  0  0  0  0  0  0  0
   14.4347    0.6638    8.3172 C   0  0  0  0  0  0  0  0  0  0  0  0
   14.9095   -0.4917    8.9647 C   0  0  0  0  0  0  0  0  0  0  0  0
   15.1212   -0.4937   10.3458 C   0  0  0  0  0  0  0  0  0  0  0  0
   14.8907    0.6727   11.0810 C   0  0  0  0  0  0  0  0  0  0  0  0
   15.1920    0.6463   12.8694 S   0  0  0  0  0  0  0  0  0  0  0  0
   14.0605   -0.1413   13.3529 O   0  0  0  0  0  0  0  0  0  0  0  0
   16.4960   -0.0048   12.9654 O   0  0  0  0  0  0  0  0  0  0  0  0
   15.1742    2.0576   13.2456 O   0  5  0  0  0  0  0  0  0  0  0  0
   14.4587    1.8415   10.4508 C   0  0  0  0  0  0  0  0  0  0  0  0
   14.2198    1.8305    9.0732 C   0  0  0  0  0  0  0  0  0  0  0  0
   15.0627    1.4655    5.9998 C   0  0  0  0  0  0  0  0  0  0  0  0
   16.1761    2.1980    6.3724 C   0  0  0  0  0  0  0  0  0  0  0  0
   16.6779    2.8379    5.2344 C   0  0  0  0  0  0  0  0  0  0  0  0
   15.9123    2.4573    4.1436 C   0  0  0  0  0  0  0  0  0  0  0  0
   14.9199    1.6232    4.6293 N   0  0  0  0  0  0  0  0  0  0  0  0
   16.0760    2.8315    2.7614 C   0  0  0  0  0  0  0  0  0  0  0  0
   17.2360    3.7250    2.4127 C   0  0  0  0  0  0  0  0  0  0  0  0
   17.0392    5.0680    2.0473 C   0  0  0  0  0  0  0  0  0  0  0  0
   18.1334    5.8870    1.7564 C   0  0  0  0  0  0  0  0  0  0  0  0
   19.4296    5.3714    1.8587 C   0  0  0  0  0  0  0  0  0  0  0  0
   20.8348    6.4675    1.5221 S   0  0  0  0  0  0  0  0  0  0  0  0
   20.7885    6.5824    0.0672 O   0  0  0  0  0  0  0  0  0  0  0  0
   20.4816    7.6780    2.2599 O   0  0  0  0  0  0  0  0  0  0  0  0
   21.9815    5.7340    2.0533 O   0  5  0  0  0  0  0  0  0  0  0  0
   19.6446    4.0478    2.2475 C   0  0  0  0  0  0  0  0  0  0  0  0
   18.5475    3.2245    2.5101 C   0  0  0  0  0  0  0  0  0  0  0  0
   15.2813    2.4153    1.7447 C   0  0  0  0  0  0  0  0  0  0  0  0
   14.1786    1.5694    1.7857 N   0  0  0  0  0  0  0  0  0  0  0  0
   13.7489    1.4837    0.5491 C   0  0  0  0  0  0  0  0  0  0  0  0
   12.6034    0.6773    0.0017 C   0  0  0  0  0  0  0  0  0  0  0  0
   12.2660    0.7111   -1.4475 C   0  0  0  0  0  0  0  0  0  0  0  0
   13.1178    0.1108   -2.3913 C   0  0  0  0  0  0  0  0  0  0  0  0
   12.8013    0.1419   -3.7526 C   0  0  0  0  0  0  0  0  0  0  0  0
   11.6164    0.7532   -4.1721 C   0  0  0  0  0  0  0  0  0  0  0  0
   11.2001    0.7339   -5.9381 S   0  0  0  0  0  0  0  0  0  0  0  0
   12.1300    1.7194   -6.4800 O   0  0  0  0  0  0  0  0  0  0  0  0
   11.4612   -0.6548   -6.3088 O   0  0  0  0  0  0  0  0  0  0  0  0
    9.7912    1.1213   -5.9609 O   0  5  0  0  0  0  0  0  0  0  0  0
   10.7479    1.3369   -3.2480 C   0  0  0  0  0  0  0  0  0  0  0  0
   11.0816    1.3280   -1.8906 C   0  0  0  0  0  0  0  0  0  0  0  0
   11.8882   -0.0973    0.8402 C   0  0  0  0  0  0  0  0  0  0  0  0
   10.7573   -0.9351    0.4550 C   0  0  0  0  0  0  0  0  0  0  0  0
   10.2572   -1.5277    1.5512 C   0  0  0  0  0  0  0  0  0  0  0  0
   11.0621   -1.1438    2.7139 C   0  0  0  0  0  0  0  0  0  0  0  0
   12.0066   -0.2939    2.1960 N   0  0  0  0  0  0  0  0  0  0  0  0
   14.5133    2.2881   -0.4136 C   0  0  0  0  0  0  0  0  0  0  0  0
   15.4597    2.8028    0.3600 C   0  0  0  0  0  0  0  0  0  0  0  0
   12.2837   -0.8589    7.1873 C   0  0  0  0  0  0  0  0  0  0  0  0
   11.4332   -1.5569    6.4491 C   0  0  0  0  0  0  0  0  0  0  0  0
    8.6628   -1.9894    5.0810 C   0  0  0  0  0  0  0  0  0  0  0  0
    7.5920   -2.8194    5.3962 C   0  0  0  0  0  0  0  0  0  0  0  0
    0.7466   -0.1645    2.8846 C   0  0  0  0  0  0  0  0  0  0  0  0
    1.4391    0.6648    2.2848 O   0  0  0  0  0  0  0  0  0  0  0  0
    0.0789    0.2644    4.1888 C   0  0  0  0  0  0  0  0  0  0  0  0
   -1.4026    0.5641    4.1083 C   0  0  0  0  0  0  0  0  0  0  0  0
   -1.8629    1.7798    3.5757 C   0  0  0  0  0  0  0  0  0  0  0  0
   -3.2333    2.0657    3.5324 C   0  0  0  0  0  0  0  0  0  0  0  0
   -4.1505    1.1275    3.9933 C   0  0  0  0  0  0  0  0  0  0  0  0
   -5.4622    1.3958    3.9315 F   0  0  0  0  0  0  0  0  0  0  0  0
   -3.7100   -0.0741    4.5233 C   0  0  0  0  0  0  0  0  0  0  0  0
   -4.5885   -0.9871    4.9608 F   0  0  0  0  0  0  0  0  0  0  0  0
   -2.3485   -0.3447    4.6086 C   0  0  0  0  0  0  0  0  0  0  0  0
    0.1166    0.3306   -1.3973 H   0  0  0  0  0  0  0  0  0  0  0  0
    1.7554    0.1540   -0.8175 H   0  0  0  0  0  0  0  0  0  0  0  0
    0.5119    0.7615    0.2493 H   0  0  0  0  0  0  0  0  0  0  0  0
    0.6155   -2.0019   -0.9185 H   0  0  0  0  0  0  0  0  0  0  0  0
   -0.6189   -1.3572    0.1878 H   0  0  0  0  0  0  0  0  0  0  0  0
    2.1900   -1.3297    1.0585 H   0  0  0  0  0  0  0  0  0  0  0  0
    1.2733   -2.8644    1.0574 H   0  0  0  0  0  0  0  0  0  0  0  0
   -0.1593   -3.3827    2.4306 H   0  0  0  0  0  0  0  0  0  0  0  0
   -1.1140   -2.1164    3.2594 H   0  0  0  0  0  0  0  0  0  0  0  0
    1.8971   -3.7706    5.4833 H   0  0  0  0  0  0  0  0  0  0  0  0
    1.9379   -4.1328    2.6023 H   0  0  0  0  0  0  0  0  0  0  0  0
    2.8270   -5.0611    3.8199 H   0  0  0  0  0  0  0  0  0  0  0  0
    3.3598   -2.2179    3.0854 H   0  0  0  0  0  0  0  0  0  0  0  0
    4.2905   -3.6438    2.5654 H   0  0  0  0  0  0  0  0  0  0  0  0
    4.0278   -2.6384    5.3619 H   0  0  0  0  0  0  0  0  0  0  0  0
    5.4466   -2.5219    4.3105 H   0  0  0  0  0  0  0  0  0  0  0  0
    4.3487   -4.9897    5.3934 H   0  0  0  0  0  0  0  0  0  0  0  0
    8.4935   -5.5279    3.6336 H   0  0  0  0  0  0  0  0  0  0  0  0
   10.4451   -4.1420    3.2244 H   0  0  0  0  0  0  0  0  0  0  0  0
   15.1028   -1.3438    8.4156 H   0  0  0  0  0  0  0  0  0  0  0  0
   15.4457   -1.3509   10.8201 H   0  0  0  0  0  0  0  0  0  0  0  0
   14.3170    2.7056   10.9969 H   0  0  0  0  0  0  0  0  0  0  0  0
   13.8825    2.6868    8.6064 H   0  0  0  0  0  0  0  0  0  0  0  0
   16.5682    2.2612    7.3249 H   0  0  0  0  0  0  0  0  0  0  0  0
   17.4822    3.4841    5.2109 H   0  0  0  0  0  0  0  0  0  0  0  0
   14.2167    1.2039    4.0826 H   0  0  0  0  0  0  0  0  0  0  0  0
   16.0823    5.4508    1.9936 H   0  0  0  0  0  0  0  0  0  0  0  0
   17.9860    6.8668    1.4677 H   0  0  0  0  0  0  0  0  0  0  0  0
   20.6049    3.6814    2.3399 H   0  0  0  0  0  0  0  0  0  0  0  0
   18.7001    2.2397    2.7781 H   0  0  0  0  0  0  0  0  0  0  0  0
   13.9828   -0.3561   -2.0769 H   0  0  0  0  0  0  0  0  0  0  0  0
   13.4386   -0.2839   -4.4436 H   0  0  0  0  0  0  0  0  0  0  0  0
    9.8669    1.7713   -3.5644 H   0  0  0  0  0  0  0  0  0  0  0  0
   10.4532    1.7782   -1.2069 H   0  0  0  0  0  0  0  0  0  0  0  0
   10.3993   -1.0532   -0.5057 H   0  0  0  0  0  0  0  0  0  0  0  0
    9.4369   -2.1536    1.5716 H   0  0  0  0  0  0  0  0  0  0  0  0
   12.7035    0.1348    2.7436 H   0  0  0  0  0  0  0  0  0  0  0  0
   14.3555    2.4183   -1.4251 H   0  0  0  0  0  0  0  0  0  0  0  0
   16.2264    3.4035    0.0188 H   0  0  0  0  0  0  0  0  0  0  0  0
   12.3204   -0.8860    8.2183 H   0  0  0  0  0  0  0  0  0  0  0  0
   10.7425   -2.2641    6.7456 H   0  0  0  0  0  0  0  0  0  0  0  0
    8.6860   -1.0226    5.4414 H   0  0  0  0  0  0  0  0  0  0  0  0
    6.8690   -2.5004    6.0600 H   0  0  0  0  0  0  0  0  0  0  0  0
    0.5734    1.1480    4.5346 H   0  0  0  0  0  0  0  0  0  0  0  0
    0.1683   -0.5737    4.8480 H   0  0  0  0  0  0  0  0  0  0  0  0
   -1.1852    2.4684    3.2131 H   0  0  0  0  0  0  0  0  0  0  0  0
   -3.5616    2.9702    3.1594 H   0  0  0  0  0  0  0  0  0  0  0  0
   -2.0298   -1.2240    5.0448 H   0  0  0  0  0  0  0  0  0  0  0  0
  1  2  1  0  0  0  0
  1 86  1  0  0  0  0
  1 87  1  0  0  0  0
  1 88  1  0  0  0  0
  2  3  1  0  0  0  0
  2 89  1  0  0  0  0
  2 90  1  0  0  0  0
  3  4  1  0  0  0  0
  3 91  1  0  0  0  0
  3 92  1  0  0  0  0
  4  5  1  0  0  0  0
  4 75  1  0  0  0  0
  5  6  1  0  0  0  0
  5 93  1  0  0  0  0
  5 94  1  0  0  0  0
  6  7  2  0  0  0  0
  6  8  1  0  0  0  0
  8  9  1  0  0  0  0
  8 95  1  0  0  0  0
  9 10  1  0  0  0  0
  9 96  1  0  0  0  0
  9 97  1  0  0  0  0
 10 11  1  0  0  0  0
 10 98  1  0  0  0  0
 10 99  1  0  0  0  0
 11 12  1  0  0  0  0
 11100  1  0  0  0  0
 11101  1  0  0  0  0
 12 13  1  0  0  0  0
 12102  1  0  0  0  0
 13 14  2  0  0  0  0
 13 15  1  0  0  0  0
 15 16  1  0  0  0  0
 15 74  2  0  0  0  0
 16 17  2  0  0  0  0
 16103  1  0  0  0  0
 17 18  1  0  0  0  0
 17104  1  0  0  0  0
 18 19  1  0  0  0  0
 18 73  2  0  0  0  0
 19 20  1  0  0  0  0
 19 67  2  0  0  0  0
 20 21  2  0  0  0  0
 20 72  1  0  0  0  0
 21 22  1  0  0  0  0
 22 23  2  0  0  0  0
 22 71  1  0  0  0  0
 23 24  1  0  0  0  0
 23 34  1  0  0  0  0
 24 25  1  0  0  0  0
 24 33  2  0  0  0  0
 25 26  2  0  0  0  0
 25105  1  0  0  0  0
 26 27  1  0  0  0  0
 26106  1  0  0  0  0
 27 28  1  0  0  0  0
 27 32  2  0  0  0  0
 28 29  2  0  0  0  0
 28 30  2  0  0  0  0
 28 31  1  0  0  0  0
 32 33  1  0  0  0  0
 32107  1  0  0  0  0
 33108  1  0  0  0  0
 34 35  2  0  0  0  0
 34 38  1  0  0  0  0
 35 36  1  0  0  0  0
 35109  1  0  0  0  0
 36 37  2  0  0  0  0
 36110  1  0  0  0  0
 37 38  1  0  0  0  0
 37 39  1  0  0  0  0
 38111  1  0  0  0  0
 39 40  1  0  0  0  0
 39 50  2  0  0  0  0
 40 41  1  0  0  0  0
 40 49  2  0  0  0  0
 41 42  2  0  0  0  0
 41112  1  0  0  0  0
 42 43  1  0  0  0  0
 42113  1  0  0  0  0
 43 44  1  0  0  0  0
 43 48  2  0  0  0  0
 44 45  2  0  0  0  0
 44 46  2  0  0  0  0
 44 47  1  0  0  0  0
 48 49  1  0  0  0  0
 48114  1  0  0  0  0
 49115  1  0  0  0  0
 50 51  1  0  0  0  0
 50 70  1  0  0  0  0
 51 52  2  0  0  0  0
 52 53  1  0  0  0  0
 52 69  1  0  0  0  0
 53 54  1  0  0  0  0
 53 64  2  0  0  0  0
 54 55  1  0  0  0  0
 54 63  2  0  0  0  0
 55 56  2  0  0  0  0
 55116  1  0  0  0  0
 56 57  1  0  0  0  0
 56117  1  0  0  0  0
 57 58  1  0  0  0  0
 57 62  2  0  0  0  0
 58 59  2  0  0  0  0
 58 60  2  0  0  0  0
 58 61  1  0  0  0  0
 62 63  1  0  0  0  0
 62118  1  0  0  0  0
 63119  1  0  0  0  0
 64 65  1  0  0  0  0
 64 68  1  0  0  0  0
 65 66  2  0  0  0  0
 65120  1  0  0  0  0
 66 67  1  0  0  0  0
 66121  1  0  0  0  0
 67 68  1  0  0  0  0
 68122  1  0  0  0  0
 69 70  2  0  0  0  0
 69123  1  0  0  0  0
 70124  1  0  0  0  0
 71 72  2  0  0  0  0
 71125  1  0  0  0  0
 72126  1  0  0  0  0
 73 74  1  0  0  0  0
 73127  1  0  0  0  0
 74128  1  0  0  0  0
 75 76  2  0  0  0  0
 75 77  1  0  0  0  0
 77 78  1  0  0  0  0
 77129  1  0  0  0  0
 77130  1  0  0  0  0
 78 79  1  0  0  0  0
 78 85  2  0  0  0  0
 79 80  2  0  0  0  0
 79131  1  0  0  0  0
 80 81  1  0  0  0  0
 80132  1  0  0  0  0
 81 82  1  0  0  0  0
 81 83  2  0  0  0  0
 83 84  1  0  0  0  0
 83 85  1  0  0  0  0
 85133  1  0  0  0  0
M  CHG  3  31  -1  47  -1  61  -1
M  END
$$$$
