3_2_5985
 OpenBabel04152301363D

128138  0  0  0  0  0  0  0  0999 V2000
    1.0342   -0.0755    0.1729 O   0  0  0  0  0  0  0  0  0  0  0  0
    2.2596   -0.1328    0.1865 C   0  0  0  0  0  0  0  0  0  0  0  0
    3.0036    1.0104    0.0256 N   0  0  0  0  0  0  0  0  0  0  0  0
    4.4411    1.1675   -0.1599 C   0  0  0  0  0  0  0  0  0  0  0  0
    4.8030    1.8340   -1.4781 C   0  0  0  0  0  0  0  0  0  0  0  0
    4.1605    3.1975   -1.6730 C   0  0  0  0  0  0  0  0  0  0  0  0
    4.4515    4.0968   -0.5701 N   0  0  0  0  0  0  0  0  0  0  0  0
    5.3850    5.0970   -0.5015 C   0  0  0  0  0  0  0  0  0  0  0  0
    5.6659    5.5361    0.6133 O   0  0  0  0  0  0  0  0  0  0  0  0
    5.9512    5.6088   -1.7258 C   0  0  0  0  0  0  0  0  0  0  0  0
    7.6604    5.6361   -1.8519 S   0  0  0  0  0  0  0  0  0  0  0  0
    7.5936    6.5024   -3.3140 C   0  0  0  0  0  0  0  0  0  0  0  0
    6.2939    6.7528   -3.6907 C   0  0  0  0  0  0  0  0  0  0  0  0
    5.3204    6.1559   -2.8343 C   0  0  0  0  0  0  0  0  0  0  0  0
    3.9244    6.3065   -3.0012 N   0  0  0  0  0  0  0  0  0  0  0  0
    2.9891    5.8125   -4.3141 S   0  0  0  0  0  0  0  0  0  0  0  0
    2.4717    4.5106   -3.9649 O   0  0  0  0  0  0  0  0  0  0  0  0
    2.0951    6.9100   -4.6074 O   0  0  0  0  0  0  0  0  0  0  0  0
    4.0266    5.6452   -5.5689 N   0  0  0  0  0  0  0  0  0  0  0  0
    4.5262    4.3688   -6.0596 C   0  0  0  0  0  0  0  0  0  0  0  0
    5.8807    4.7703   -6.6189 C   0  0  0  0  0  0  0  0  0  0  0  0
    5.6816    6.1983   -7.1351 C   0  0  0  0  0  0  0  0  0  0  0  0
    4.3869    6.7106   -6.4916 C   0  0  0  0  0  0  0  0  0  0  0  0
    2.9464   -1.4284    0.3505 C   0  0  0  0  0  0  0  0  0  0  0  0
    4.0534   -1.5327    1.1933 C   0  0  0  0  0  0  0  0  0  0  0  0
    4.8041   -2.6977    1.1978 C   0  0  0  0  0  0  0  0  0  0  0  0
    4.3608   -3.8308    0.4971 C   0  0  0  0  0  0  0  0  0  0  0  0
    5.1056   -5.1037    0.6544 C   0  0  0  0  0  0  0  0  0  0  0  0
    5.7764   -5.7708   -0.5128 C   0  0  0  0  0  0  0  0  0  0  0  0
    6.4823   -6.8726   -0.5294 N   0  0  0  0  0  0  0  0  0  0  0  0
    6.8500   -7.0720   -1.8549 C   0  0  0  0  0  0  0  0  0  0  0  0
    7.6014   -8.0693   -2.3817 C   0  0  0  0  0  0  0  0  0  0  0  0
    7.8307   -8.0654   -3.8718 C   0  0  0  0  0  0  0  0  0  0  0  0
    8.6746   -7.1190   -4.4803 C   0  0  0  0  0  0  0  0  0  0  0  0
    8.8890   -7.1453   -5.8620 C   0  0  0  0  0  0  0  0  0  0  0  0
    8.2813   -8.1373   -6.6381 C   0  0  0  0  0  0  0  0  0  0  0  0
    8.5947   -8.1586   -8.4252 S   0  0  0  0  0  0  0  0  0  0  0  0
    7.8280   -7.0004   -8.8785 O   0  0  0  0  0  0  0  0  0  0  0  0
   10.0466   -8.0160   -8.4977 O   0  0  0  0  0  0  0  0  0  0  0  0
    8.0763   -9.4550   -8.8544 O   0  5  0  0  0  0  0  0  0  0  0  0
    7.4675   -9.1060   -6.0484 C   0  0  0  0  0  0  0  0  0  0  0  0
    7.2349   -9.0601   -4.6702 C   0  0  0  0  0  0  0  0  0  0  0  0
    8.1677   -9.1453   -1.6079 C   0  0  0  0  0  0  0  0  0  0  0  0
    8.9645  -10.1906   -2.0424 C   0  0  0  0  0  0  0  0  0  0  0  0
    9.2257  -11.0252   -0.9504 C   0  0  0  0  0  0  0  0  0  0  0  0
    8.6454  -10.4671    0.1775 C   0  0  0  0  0  0  0  0  0  0  0  0
    7.9940   -9.3185   -0.2419 N   0  0  0  0  0  0  0  0  0  0  0  0
    8.6827  -10.9529    1.5344 C   0  0  0  0  0  0  0  0  0  0  0  0
    9.4471  -12.2192    1.8088 C   0  0  0  0  0  0  0  0  0  0  0  0
    8.7826  -13.4149    2.1341 C   0  0  0  0  0  0  0  0  0  0  0  0
    9.5112  -14.5798    2.3858 C   0  0  0  0  0  0  0  0  0  0  0  0
   10.9056  -14.5579    2.2815 C   0  0  0  0  0  0  0  0  0  0  0  0
   11.8266  -16.0920    2.5755 S   0  0  0  0  0  0  0  0  0  0  0  0
   11.7404  -16.2242    4.0272 O   0  0  0  0  0  0  0  0  0  0  0  0
   11.0657  -17.0749    1.8081 O   0  0  0  0  0  0  0  0  0  0  0  0
   13.1602  -15.8005    2.0543 O   0  5  0  0  0  0  0  0  0  0  0  0
   11.5794  -13.3873    1.9274 C   0  0  0  0  0  0  0  0  0  0  0  0
   10.8498  -12.2177    1.7054 C   0  0  0  0  0  0  0  0  0  0  0  0
    8.1072  -10.3405    2.5981 C   0  0  0  0  0  0  0  0  0  0  0  0
    7.3695   -9.1648    2.6343 N   0  0  0  0  0  0  0  0  0  0  0  0
    7.0122   -9.0090    3.8868 C   0  0  0  0  0  0  0  0  0  0  0  0
    6.2127   -7.9009    4.5032 C   0  0  0  0  0  0  0  0  0  0  0  0
    5.9065   -7.8756    5.9582 C   0  0  0  0  0  0  0  0  0  0  0  0
    6.9197   -7.6384    6.9018 C   0  0  0  0  0  0  0  0  0  0  0  0
    6.6170   -7.5933    8.2658 C   0  0  0  0  0  0  0  0  0  0  0  0
    5.2938   -7.7593    8.6867 C   0  0  0  0  0  0  0  0  0  0  0  0
    4.9162   -7.6452   10.4569 S   0  0  0  0  0  0  0  0  0  0  0  0
    5.4337   -8.9141   10.9584 O   0  0  0  0  0  0  0  0  0  0  0  0
    5.6577   -6.4536   10.8621 O   0  0  0  0  0  0  0  0  0  0  0  0
    3.4620   -7.5045   10.4874 O   0  5  0  0  0  0  0  0  0  0  0  0
    4.2712   -7.9753    7.7624 C   0  0  0  0  0  0  0  0  0  0  0  0
    4.5826   -8.0524    6.4038 C   0  0  0  0  0  0  0  0  0  0  0  0
    5.7440   -6.9233    3.7071 C   0  0  0  0  0  0  0  0  0  0  0  0
    4.9399   -5.7967    4.1605 C   0  0  0  0  0  0  0  0  0  0  0  0
    4.5769   -5.0695    3.0961 C   0  0  0  0  0  0  0  0  0  0  0  0
    5.1954   -5.6339    1.8907 C   0  0  0  0  0  0  0  0  0  0  0  0
    5.8572   -6.7417    2.3492 N   0  0  0  0  0  0  0  0  0  0  0  0
    7.4693  -10.0730    4.7875 C   0  0  0  0  0  0  0  0  0  0  0  0
    8.1643  -10.8396    3.9582 C   0  0  0  0  0  0  0  0  0  0  0  0
    6.2719   -5.9867   -2.6184 C   0  0  0  0  0  0  0  0  0  0  0  0
    5.6351   -5.1300   -1.8299 C   0  0  0  0  0  0  0  0  0  0  0  0
    3.1809   -3.7528   -0.2583 C   0  0  0  0  0  0  0  0  0  0  0  0
    2.4888   -2.5434   -0.3559 C   0  0  0  0  0  0  0  0  0  0  0  0
    2.4890    1.8496    0.0373 H   0  0  0  0  0  0  0  0  0  0  0  0
    4.8960    0.1994   -0.1316 H   0  0  0  0  0  0  0  0  0  0  0  0
    4.7970    1.8004    0.6260 H   0  0  0  0  0  0  0  0  0  0  0  0
    4.4879    1.1954   -2.2767 H   0  0  0  0  0  0  0  0  0  0  0  0
    5.8620    1.9870   -1.4695 H   0  0  0  0  0  0  0  0  0  0  0  0
    3.1004    3.0728   -1.7470 H   0  0  0  0  0  0  0  0  0  0  0  0
    4.5619    3.6282   -2.5664 H   0  0  0  0  0  0  0  0  0  0  0  0
    3.9034    3.9703    0.2379 H   0  0  0  0  0  0  0  0  0  0  0  0
    8.4226    6.8022   -3.8506 H   0  0  0  0  0  0  0  0  0  0  0  0
    6.0459    7.3200   -4.5164 H   0  0  0  0  0  0  0  0  0  0  0  0
    3.4432    6.7509   -2.2662 H   0  0  0  0  0  0  0  0  0  0  0  0
    3.8917    3.9674   -6.8219 H   0  0  0  0  0  0  0  0  0  0  0  0
    4.5710    3.6018   -5.3149 H   0  0  0  0  0  0  0  0  0  0  0  0
    6.1679    4.1175   -7.4166 H   0  0  0  0  0  0  0  0  0  0  0  0
    6.6557    4.7105   -5.8836 H   0  0  0  0  0  0  0  0  0  0  0  0
    5.5907    6.1978   -8.2012 H   0  0  0  0  0  0  0  0  0  0  0  0
    6.5141    6.8223   -6.8853 H   0  0  0  0  0  0  0  0  0  0  0  0
    4.5560    7.6290   -5.9693 H   0  0  0  0  0  0  0  0  0  0  0  0
    3.6195    6.9222   -7.2066 H   0  0  0  0  0  0  0  0  0  0  0  0
    4.3118   -0.7466    1.8100 H   0  0  0  0  0  0  0  0  0  0  0  0
    5.6940   -2.7326    1.7192 H   0  0  0  0  0  0  0  0  0  0  0  0
    9.1388   -6.4003   -3.9032 H   0  0  0  0  0  0  0  0  0  0  0  0
    9.4927   -6.4362   -6.3067 H   0  0  0  0  0  0  0  0  0  0  0  0
    7.0415   -9.8491   -6.6241 H   0  0  0  0  0  0  0  0  0  0  0  0
    6.6192   -9.7637   -4.2333 H   0  0  0  0  0  0  0  0  0  0  0  0
    9.3069  -10.3302   -3.0059 H   0  0  0  0  0  0  0  0  0  0  0  0
    9.7603  -11.9075   -0.9799 H   0  0  0  0  0  0  0  0  0  0  0  0
    7.4829   -8.7139    0.3432 H   0  0  0  0  0  0  0  0  0  0  0  0
    7.7521  -13.4319    2.1871 H   0  0  0  0  0  0  0  0  0  0  0  0
    9.0236  -15.4510    2.6471 H   0  0  0  0  0  0  0  0  0  0  0  0
   12.6069  -13.3866    1.8307 H   0  0  0  0  0  0  0  0  0  0  0  0
   11.3440  -11.3446    1.4634 H   0  0  0  0  0  0  0  0  0  0  0  0
    7.8921   -7.4968    6.5866 H   0  0  0  0  0  0  0  0  0  0  0  0
    7.3661   -7.4383    8.9585 H   0  0  0  0  0  0  0  0  0  0  0  0
    3.2945   -8.0770    8.0799 H   0  0  0  0  0  0  0  0  0  0  0  0
    3.8343   -8.2410    5.7186 H   0  0  0  0  0  0  0  0  0  0  0  0
    4.6908   -5.5924    5.1409 H   0  0  0  0  0  0  0  0  0  0  0  0
    3.9597   -4.2428    3.1197 H   0  0  0  0  0  0  0  0  0  0  0  0
    6.3646   -7.3489    1.7634 H   0  0  0  0  0  0  0  0  0  0  0  0
    7.2960  -10.1930    5.7978 H   0  0  0  0  0  0  0  0  0  0  0  0
    8.6811  -11.6856    4.2450 H   0  0  0  0  0  0  0  0  0  0  0  0
    6.3454   -5.8914   -3.6434 H   0  0  0  0  0  0  0  0  0  0  0  0
    5.1639   -4.2455   -2.0761 H   0  0  0  0  0  0  0  0  0  0  0  0
    2.8236   -4.5909   -0.7429 H   0  0  0  0  0  0  0  0  0  0  0  0
    1.6450   -2.4740   -0.9460 H   0  0  0  0  0  0  0  0  0  0  0  0
  1  2  2  0  0  0  0
  2  3  1  0  0  0  0
  2 24  1  0  0  0  0
  3  4  1  0  0  0  0
  3 84  1  0  0  0  0
  4  5  1  0  0  0  0
  4 85  1  0  0  0  0
  4 86  1  0  0  0  0
  5  6  1  0  0  0  0
  5 87  1  0  0  0  0
  5 88  1  0  0  0  0
  6  7  1  0  0  0  0
  6 89  1  0  0  0  0
  6 90  1  0  0  0  0
  7  8  1  0  0  0  0
  7 91  1  0  0  0  0
  8  9  2  0  0  0  0
  8 10  1  0  0  0  0
 10 11  1  0  0  0  0
 10 14  2  0  0  0  0
 11 12  1  0  0  0  0
 12 13  2  0  0  0  0
 12 92  1  0  0  0  0
 13 14  1  0  0  0  0
 13 93  1  0  0  0  0
 14 15  1  0  0  0  0
 15 16  1  0  0  0  0
 15 94  1  0  0  0  0
 16 17  2  0  0  0  0
 16 18  2  0  0  0  0
 16 19  1  0  0  0  0
 19 20  1  0  0  0  0
 19 23  1  0  0  0  0
 20 21  1  0  0  0  0
 20 95  1  0  0  0  0
 20 96  1  0  0  0  0
 21 22  1  0  0  0  0
 21 97  1  0  0  0  0
 21 98  1  0  0  0  0
 22 23  1  0  0  0  0
 22 99  1  0  0  0  0
 22100  1  0  0  0  0
 23101  1  0  0  0  0
 23102  1  0  0  0  0
 24 25  1  0  0  0  0
 24 83  2  0  0  0  0
 25 26  2  0  0  0  0
 25103  1  0  0  0  0
 26 27  1  0  0  0  0
 26104  1  0  0  0  0
 27 28  1  0  0  0  0
 27 82  2  0  0  0  0
 28 29  1  0  0  0  0
 28 76  2  0  0  0  0
 29 30  2  0  0  0  0
 29 81  1  0  0  0  0
 30 31  1  0  0  0  0
 31 32  2  0  0  0  0
 31 80  1  0  0  0  0
 32 33  1  0  0  0  0
 32 43  1  0  0  0  0
 33 34  1  0  0  0  0
 33 42  2  0  0  0  0
 34 35  2  0  0  0  0
 34105  1  0  0  0  0
 35 36  1  0  0  0  0
 35106  1  0  0  0  0
 36 37  1  0  0  0  0
 36 41  2  0  0  0  0
 37 38  2  0  0  0  0
 37 39  2  0  0  0  0
 37 40  1  0  0  0  0
 41 42  1  0  0  0  0
 41107  1  0  0  0  0
 42108  1  0  0  0  0
 43 44  2  0  0  0  0
 43 47  1  0  0  0  0
 44 45  1  0  0  0  0
 44109  1  0  0  0  0
 45 46  2  0  0  0  0
 45110  1  0  0  0  0
 46 47  1  0  0  0  0
 46 48  1  0  0  0  0
 47111  1  0  0  0  0
 48 49  1  0  0  0  0
 48 59  2  0  0  0  0
 49 50  1  0  0  0  0
 49 58  2  0  0  0  0
 50 51  2  0  0  0  0
 50112  1  0  0  0  0
 51 52  1  0  0  0  0
 51113  1  0  0  0  0
 52 53  1  0  0  0  0
 52 57  2  0  0  0  0
 53 54  2  0  0  0  0
 53 55  2  0  0  0  0
 53 56  1  0  0  0  0
 57 58  1  0  0  0  0
 57114  1  0  0  0  0
 58115  1  0  0  0  0
 59 60  1  0  0  0  0
 59 79  1  0  0  0  0
 60 61  2  0  0  0  0
 61 62  1  0  0  0  0
 61 78  1  0  0  0  0
 62 63  1  0  0  0  0
 62 73  2  0  0  0  0
 63 64  1  0  0  0  0
 63 72  2  0  0  0  0
 64 65  2  0  0  0  0
 64116  1  0  0  0  0
 65 66  1  0  0  0  0
 65117  1  0  0  0  0
 66 67  1  0  0  0  0
 66 71  2  0  0  0  0
 67 68  2  0  0  0  0
 67 69  2  0  0  0  0
 67 70  1  0  0  0  0
 71 72  1  0  0  0  0
 71118  1  0  0  0  0
 72119  1  0  0  0  0
 73 74  1  0  0  0  0
 73 77  1  0  0  0  0
 74 75  2  0  0  0  0
 74120  1  0  0  0  0
 75 76  1  0  0  0  0
 75121  1  0  0  0  0
 76 77  1  0  0  0  0
 77122  1  0  0  0  0
 78 79  2  0  0  0  0
 78123  1  0  0  0  0
 79124  1  0  0  0  0
 80 81  2  0  0  0  0
 80125  1  0  0  0  0
 81126  1  0  0  0  0
 82 83  1  0  0  0  0
 82127  1  0  0  0  0
 83128  1  0  0  0  0
M  CHG  3  40  -1  56  -1  70  -1
M  END
$$$$
