3_2_8624
 OpenBabel04152301373D

151161  0  0  1  0  0  0  0  0999 V2000
    5.5241    5.6446   -1.0924 C   0  0  0  0  0  0  0  0  0  0  0  0
    5.2435    4.9331    0.2204 C   0  0  0  0  0  0  0  0  0  0  0  0
    3.8261    5.1776    0.7488 C   0  0  0  0  0  0  0  0  0  0  0  0
    2.7999    4.6626   -0.1445 N   0  3  0  0  0  0  0  0  0  0  0  0
    1.4009    4.5690    0.3329 C   0  0  2  0  0  0  0  0  0  0  0  0
    0.8215    3.1376    0.0066 C   0  0  0  0  0  0  0  0  0  0  0  0
   -0.3637    2.9912   -0.3231 O   0  0  0  0  0  0  0  0  0  0  0  0
    1.5218    1.9791    0.2048 N   0  0  0  0  0  0  0  0  0  0  0  0
    2.9512    1.7406    0.2850 C   0  0  0  0  0  0  0  0  0  0  0  0
    3.3676    0.8401    1.4333 C   0  0  0  0  0  0  0  0  0  0  0  0
    2.9473   -0.6098    1.2686 C   0  0  0  0  0  0  0  0  0  0  0  0
    3.5347   -1.2360    0.0889 N   0  0  0  0  0  0  0  0  0  0  0  0
    4.4940   -2.2132   -0.0281 C   0  0  0  0  0  0  0  0  0  0  0  0
    4.9936   -2.4366   -1.1262 O   0  0  0  0  0  0  0  0  0  0  0  0
    4.9365   -2.9822    1.1562 C   0  0  0  0  0  0  0  0  0  0  0  0
    6.2853   -3.3293    1.2774 C   0  0  0  0  0  0  0  0  0  0  0  0
    6.7261   -4.0161    2.4118 C   0  0  0  0  0  0  0  0  0  0  0  0
    5.8347   -4.3065    3.4574 C   0  0  0  0  0  0  0  0  0  0  0  0
    6.2885   -4.9698    4.7067 C   0  0  0  0  0  0  0  0  0  0  0  0
    5.7120   -6.3034    5.1060 C   0  0  0  0  0  0  0  0  0  0  0  0
    5.9308   -7.0053    6.1883 N   0  0  0  0  0  0  0  0  0  0  0  0
    5.1135   -8.1255    6.0850 C   0  0  0  0  0  0  0  0  0  0  0  0
    5.0219   -9.1900    6.9172 C   0  0  0  0  0  0  0  0  0  0  0  0
    4.0502  -10.2826    6.5503 C   0  0  0  0  0  0  0  0  0  0  0  0
    4.2713  -11.1088    5.4326 C   0  0  0  0  0  0  0  0  0  0  0  0
    3.3617  -12.1175    5.1050 C   0  0  0  0  0  0  0  0  0  0  0  0
    2.2435  -12.3286    5.9168 C   0  0  0  0  0  0  0  0  0  0  0  0
    1.0961  -13.6643    5.4826 S   0  0  0  0  0  0  0  0  0  0  0  0
    0.4443  -13.1259    4.2911 O   0  0  0  0  0  0  0  0  0  0  0  0
    1.9932  -14.7934    5.2510 O   0  0  0  0  0  0  0  0  0  0  0  0
    0.2396  -13.7836    6.6599 O   0  5  0  0  0  0  0  0  0  0  0  0
    2.0255  -11.5444    7.0513 C   0  0  0  0  0  0  0  0  0  0  0  0
    2.9212  -10.5152    7.3569 C   0  0  0  0  0  0  0  0  0  0  0  0
    5.7928   -9.3345    8.1233 C   0  0  0  0  0  0  0  0  0  0  0  0
    5.8152  -10.3990    9.0070 C   0  0  0  0  0  0  0  0  0  0  0  0
    6.6695  -10.0701   10.0641 C   0  0  0  0  0  0  0  0  0  0  0  0
    7.2319   -8.8303    9.8043 C   0  0  0  0  0  0  0  0  0  0  0  0
    6.6769   -8.3863    8.6161 N   0  0  0  0  0  0  0  0  0  0  0  0
    8.2037   -8.1070   10.5856 C   0  0  0  0  0  0  0  0  0  0  0  0
    8.7292   -8.7660   11.8338 C   0  0  0  0  0  0  0  0  0  0  0  0
    8.4016   -8.2819   13.1125 C   0  0  0  0  0  0  0  0  0  0  0  0
    8.8925   -8.9190   14.2553 C   0  0  0  0  0  0  0  0  0  0  0  0
    9.6843  -10.0641   14.1222 C   0  0  0  0  0  0  0  0  0  0  0  0
   10.2775  -10.8935   15.6218 S   0  0  0  0  0  0  0  0  0  0  0  0
   11.3008   -9.9665   16.0971 O   0  0  0  0  0  0  0  0  0  0  0  0
    9.0712  -10.9729   16.4420 O   0  0  0  0  0  0  0  0  0  0  0  0
   10.7778  -12.1768   15.1341 O   0  5  0  0  0  0  0  0  0  0  0  0
    9.9909  -10.5795   12.8618 C   0  0  0  0  0  0  0  0  0  0  0  0
    9.5256   -9.9210   11.7215 C   0  0  0  0  0  0  0  0  0  0  0  0
    8.7079   -6.8901   10.2628 C   0  0  0  0  0  0  0  0  0  0  0  0
    8.4283   -6.0901    9.1602 N   0  0  0  0  0  0  0  0  0  0  0  0
    9.1580   -5.0099    9.3091 C   0  0  0  0  0  0  0  0  0  0  0  0
    9.2844   -3.8210    8.3956 C   0  0  0  0  0  0  0  0  0  0  0  0
   10.1798   -2.6818    8.7409 C   0  0  0  0  0  0  0  0  0  0  0  0
   11.5764   -2.8457    8.7439 C   0  0  0  0  0  0  0  0  0  0  0  0
   12.4153   -1.7802    9.0843 C   0  0  0  0  0  0  0  0  0  0  0  0
   11.8595   -0.5359    9.3944 C   0  0  0  0  0  0  0  0  0  0  0  0
   12.9697    0.8435    9.7905 S   0  0  0  0  0  0  0  0  0  0  0  0
   13.4556    0.4717   11.1153 O   0  0  0  0  0  0  0  0  0  0  0  0
   13.9530    0.7757    8.7124 O   0  0  0  0  0  0  0  0  0  0  0  0
   12.0920    2.0113    9.7497 O   0  5  0  0  0  0  0  0  0  0  0  0
   10.4767   -0.3462    9.3722 C   0  0  0  0  0  0  0  0  0  0  0  0
    9.6404   -1.4225    9.0622 C   0  0  0  0  0  0  0  0  0  0  0  0
    8.5847   -3.8045    7.2445 C   0  0  0  0  0  0  0  0  0  0  0  0
    8.6108   -2.7290    6.2589 C   0  0  0  0  0  0  0  0  0  0  0  0
    7.7624   -3.0272    5.2621 C   0  0  0  0  0  0  0  0  0  0  0  0
    7.1664   -4.3420    5.5146 C   0  0  0  0  0  0  0  0  0  0  0  0
    7.7077   -4.7234    6.7168 N   0  0  0  0  0  0  0  0  0  0  0  0
    9.9602   -4.9878   10.5395 C   0  0  0  0  0  0  0  0  0  0  0  0
    9.6848   -6.1760   11.0595 C   0  0  0  0  0  0  0  0  0  0  0  0
    4.3511   -7.9820    4.8653 C   0  0  0  0  0  0  0  0  0  0  0  0
    4.7402   -6.9153    4.1835 C   0  0  0  0  0  0  0  0  0  0  0  0
    4.4818   -3.9726    3.3091 C   0  0  0  0  0  0  0  0  0  0  0  0
    4.0263   -3.3870    2.1336 C   0  0  0  0  0  0  0  0  0  0  0  0
    0.5697    5.6160   -0.4498 C   0  0  0  0  0  0  0  0  0  0  0  0
    0.9381    7.0422   -0.0526 C   0  0  0  0  0  0  0  0  0  0  0  0
    0.6749    7.2941    1.4344 C   0  0  0  0  0  0  0  0  0  0  0  0
    1.2446    6.2133    2.3766 C   0  0  1  0  0  0  0  0  0  0  0  0
    0.9224    6.3109    3.8238 N   0  3  1  0  0  0  0  0  0  0  0  0
    1.6700    7.4197    4.4405 C   0  0  0  0  0  0  0  0  0  0  0  0
   -0.4625    6.2699    4.3357 C   0  0  1  0  0  0  0  0  0  0  0  0
   -1.3925    7.4119    3.8886 C   0  0  0  0  0  0  0  0  0  0  0  0
   -1.2037    4.9444    4.2510 C   0  0  0  0  0  0  0  0  0  0  0  0
   -0.6107    3.5502    4.1776 C   0  0  0  0  0  0  0  0  0  0  0  0
   -1.1688    4.0349    5.4701 C   0  0  0  0  0  0  0  0  0  0  0  0
    1.0821    4.7840    1.8330 C   0  0  0  0  0  0  0  0  0  0  0  0
    6.5254    5.4339   -1.4053 H   0  0  0  0  0  0  0  0  0  0  0  0
    5.4068    6.6997   -0.9584 H   0  0  0  0  0  0  0  0  0  0  0  0
    4.8377    5.3013   -1.8380 H   0  0  0  0  0  0  0  0  0  0  0  0
    5.9435    5.2800    0.9515 H   0  0  0  0  0  0  0  0  0  0  0  0
    5.3385    3.8828    0.0394 H   0  0  0  0  0  0  0  0  0  0  0  0
    3.6811    6.2312    0.8662 H   0  0  0  0  0  0  0  0  0  0  0  0
    3.7339    4.6604    1.6810 H   0  0  0  0  0  0  0  0  0  0  0  0
    3.0856    3.7212   -0.4139 H   0  0  0  0  0  0  0  0  0  0  0  0
    2.7547    5.3606   -0.8869 H   0  0  0  0  0  0  0  0  0  0  0  0
    0.9642    1.1746    0.3104 H   0  0  0  0  0  0  0  0  0  0  0  0
    3.4428    2.6837    0.4027 H   0  0  0  0  0  0  0  0  0  0  0  0
    3.2303    1.2377   -0.6173 H   0  0  0  0  0  0  0  0  0  0  0  0
    2.9275    1.2174    2.3327 H   0  0  0  0  0  0  0  0  0  0  0  0
    4.4372    0.8499    1.4606 H   0  0  0  0  0  0  0  0  0  0  0  0
    1.8815   -0.6495    1.1823 H   0  0  0  0  0  0  0  0  0  0  0  0
    3.2953   -1.1465    2.1264 H   0  0  0  0  0  0  0  0  0  0  0  0
    3.1846   -0.9020   -0.7685 H   0  0  0  0  0  0  0  0  0  0  0  0
    6.9533   -3.0791    0.5316 H   0  0  0  0  0  0  0  0  0  0  0  0
    7.7124   -4.3116    2.4816 H   0  0  0  0  0  0  0  0  0  0  0  0
    5.1118  -10.9685    4.8505 H   0  0  0  0  0  0  0  0  0  0  0  0
    3.5144  -12.7030    4.2690 H   0  0  0  0  0  0  0  0  0  0  0  0
    1.2106  -11.7228    7.6588 H   0  0  0  0  0  0  0  0  0  0  0  0
    2.7524   -9.9199    8.1828 H   0  0  0  0  0  0  0  0  0  0  0  0
    5.2921  -11.2826    8.9038 H   0  0  0  0  0  0  0  0  0  0  0  0
    6.8506  -10.6521   10.8969 H   0  0  0  0  0  0  0  0  0  0  0  0
    6.8798   -7.5249    8.1848 H   0  0  0  0  0  0  0  0  0  0  0  0
    7.7956   -7.4520   13.2076 H   0  0  0  0  0  0  0  0  0  0  0  0
    8.6720   -8.5466   15.1922 H   0  0  0  0  0  0  0  0  0  0  0  0
   10.5558  -11.4386   12.7734 H   0  0  0  0  0  0  0  0  0  0  0  0
    9.7682  -10.2851   10.7868 H   0  0  0  0  0  0  0  0  0  0  0  0
   11.9853   -3.7594    8.4929 H   0  0  0  0  0  0  0  0  0  0  0  0
   13.4386   -1.9117    9.1064 H   0  0  0  0  0  0  0  0  0  0  0  0
   10.0752    0.5809    9.5829 H   0  0  0  0  0  0  0  0  0  0  0  0
    8.6167   -1.2922    9.0690 H   0  0  0  0  0  0  0  0  0  0  0  0
    9.1886   -1.8760    6.3185 H   0  0  0  0  0  0  0  0  0  0  0  0
    7.5618   -2.4261    4.4475 H   0  0  0  0  0  0  0  0  0  0  0  0
    7.4888   -5.5749    7.1599 H   0  0  0  0  0  0  0  0  0  0  0  0
   10.5758   -4.2437   10.9033 H   0  0  0  0  0  0  0  0  0  0  0  0
   10.1124   -6.5456   11.9230 H   0  0  0  0  0  0  0  0  0  0  0  0
    3.6024   -8.6258    4.5654 H   0  0  0  0  0  0  0  0  0  0  0  0
    4.4405   -6.5959    3.2490 H   0  0  0  0  0  0  0  0  0  0  0  0
    3.8195   -4.1627    4.0774 H   0  0  0  0  0  0  0  0  0  0  0  0
    3.0143   -3.2515    1.9835 H   0  0  0  0  0  0  0  0  0  0  0  0
   -0.4686    5.4568   -0.2460 H   0  0  0  0  0  0  0  0  0  0  0  0
    0.7794    5.4959   -1.4922 H   0  0  0  0  0  0  0  0  0  0  0  0
    0.3528    7.7266   -0.6305 H   0  0  0  0  0  0  0  0  0  0  0  0
    1.9822    7.1842   -0.2384 H   0  0  0  0  0  0  0  0  0  0  0  0
   -0.3836    7.3428    1.5830 H   0  0  0  0  0  0  0  0  0  0  0  0
    1.1744    8.2075    1.6816 H   0  0  0  0  0  0  0  0  0  0  0  0
    2.2859    6.4590    2.3618 H   0  0  0  0  0  0  0  0  0  0  0  0
    1.2227    5.3815    4.1178 H   0  0  0  0  0  0  0  0  0  0  0  0
    1.2903    8.3516    4.0769 H   0  0  0  0  0  0  0  0  0  0  0  0
    2.7065    7.3344    4.1890 H   0  0  0  0  0  0  0  0  0  0  0  0
    1.5564    7.3787    5.5037 H   0  0  0  0  0  0  0  0  0  0  0  0
   -0.2328    6.4217    5.3697 H   0  0  0  0  0  0  0  0  0  0  0  0
   -1.6401    7.2864    2.8552 H   0  0  0  0  0  0  0  0  0  0  0  0
   -0.8964    8.3501    4.0251 H   0  0  0  0  0  0  0  0  0  0  0  0
   -2.2875    7.3932    4.4747 H   0  0  0  0  0  0  0  0  0  0  0  0
   -1.9065    5.4478    3.6204 H   0  0  0  0  0  0  0  0  0  0  0  0
    0.4463    3.4259    4.0668 H   0  0  0  0  0  0  0  0  0  0  0  0
   -0.7794    2.6929    3.5600 H   0  0  0  0  0  0  0  0  0  0  0  0
   -2.0773    3.6161    5.8496 H   0  0  0  0  0  0  0  0  0  0  0  0
   -0.7916    4.1253    6.4673 H   0  0  0  0  0  0  0  0  0  0  0  0
    1.7313    4.1471    2.3968 H   0  0  0  0  0  0  0  0  0  0  0  0
    0.0401    4.5623    1.9332 H   0  0  0  0  0  0  0  0  0  0  0  0
  1  2  1  0  0  0  0
  1 87  1  0  0  0  0
  1 88  1  0  0  0  0
  1 89  1  0  0  0  0
  2  3  1  0  0  0  0
  2 90  1  0  0  0  0
  2 91  1  0  0  0  0
  3  4  1  0  0  0  0
  3 92  1  0  0  0  0
  3 93  1  0  0  0  0
  4 94  1  0  0  0  0
  4 95  1  0  0  0  0
  5 75  1  0  0  0  0
  5 86  1  0  0  0  0
  5  6  1  6  0  0  0
  5  4  1  0  0  0  0
  6  7  2  0  0  0  0
  6  8  1  0  0  0  0
  8  9  1  0  0  0  0
  8 96  1  0  0  0  0
  9 10  1  0  0  0  0
  9 97  1  0  0  0  0
  9 98  1  0  0  0  0
 10 11  1  0  0  0  0
 10 99  1  0  0  0  0
 10100  1  0  0  0  0
 11 12  1  0  0  0  0
 11101  1  0  0  0  0
 11102  1  0  0  0  0
 12 13  1  0  0  0  0
 12103  1  0  0  0  0
 13 14  2  0  0  0  0
 13 15  1  0  0  0  0
 15 16  1  0  0  0  0
 15 74  2  0  0  0  0
 16 17  2  0  0  0  0
 16104  1  0  0  0  0
 17 18  1  0  0  0  0
 17105  1  0  0  0  0
 18 19  1  0  0  0  0
 18 73  2  0  0  0  0
 19 20  1  0  0  0  0
 19 67  2  0  0  0  0
 20 21  2  0  0  0  0
 20 72  1  0  0  0  0
 21 22  1  0  0  0  0
 22 23  2  0  0  0  0
 22 71  1  0  0  0  0
 23 24  1  0  0  0  0
 23 34  1  0  0  0  0
 24 25  1  0  0  0  0
 24 33  2  0  0  0  0
 25 26  2  0  0  0  0
 25106  1  0  0  0  0
 26 27  1  0  0  0  0
 26107  1  0  0  0  0
 27 28  1  0  0  0  0
 27 32  2  0  0  0  0
 28 29  2  0  0  0  0
 28 30  2  0  0  0  0
 28 31  1  0  0  0  0
 32 33  1  0  0  0  0
 32108  1  0  0  0  0
 33109  1  0  0  0  0
 34 35  2  0  0  0  0
 34 38  1  0  0  0  0
 35 36  1  0  0  0  0
 35110  1  0  0  0  0
 36 37  2  0  0  0  0
 36111  1  0  0  0  0
 37 38  1  0  0  0  0
 37 39  1  0  0  0  0
 38112  1  0  0  0  0
 39 40  1  0  0  0  0
 39 50  2  0  0  0  0
 40 41  1  0  0  0  0
 40 49  2  0  0  0  0
 41 42  2  0  0  0  0
 41113  1  0  0  0  0
 42 43  1  0  0  0  0
 42114  1  0  0  0  0
 43 44  1  0  0  0  0
 43 48  2  0  0  0  0
 44 45  2  0  0  0  0
 44 46  2  0  0  0  0
 44 47  1  0  0  0  0
 48 49  1  0  0  0  0
 48115  1  0  0  0  0
 49116  1  0  0  0  0
 50 51  1  0  0  0  0
 50 70  1  0  0  0  0
 51 52  2  0  0  0  0
 52 53  1  0  0  0  0
 52 69  1  0  0  0  0
 53 54  1  0  0  0  0
 53 64  2  0  0  0  0
 54 55  1  0  0  0  0
 54 63  2  0  0  0  0
 55 56  2  0  0  0  0
 55117  1  0  0  0  0
 56 57  1  0  0  0  0
 56118  1  0  0  0  0
 57 58  1  0  0  0  0
 57 62  2  0  0  0  0
 58 59  2  0  0  0  0
 58 60  2  0  0  0  0
 58 61  1  0  0  0  0
 62 63  1  0  0  0  0
 62119  1  0  0  0  0
 63120  1  0  0  0  0
 64 65  1  0  0  0  0
 64 68  1  0  0  0  0
 65 66  2  0  0  0  0
 65121  1  0  0  0  0
 66 67  1  0  0  0  0
 66122  1  0  0  0  0
 67 68  1  0  0  0  0
 68123  1  0  0  0  0
 69 70  2  0  0  0  0
 69124  1  0  0  0  0
 70125  1  0  0  0  0
 71 72  2  0  0  0  0
 71126  1  0  0  0  0
 72127  1  0  0  0  0
 73 74  1  0  0  0  0
 73128  1  0  0  0  0
 74129  1  0  0  0  0
 75 76  1  0  0  0  0
 75130  1  0  0  0  0
 75131  1  0  0  0  0
 76 77  1  0  0  0  0
 76132  1  0  0  0  0
 76133  1  0  0  0  0
 77 78  1  0  0  0  0
 77134  1  0  0  0  0
 77135  1  0  0  0  0
 78 79  1  0  0  0  0
 78 86  1  0  0  0  0
 78136  1  6  0  0  0
 79 80  1  0  0  0  0
 79 81  1  0  0  0  0
 79137  1  1  0  0  0
 80138  1  0  0  0  0
 80139  1  0  0  0  0
 80140  1  0  0  0  0
 81 82  1  0  0  0  0
 81 83  1  0  0  0  0
 81141  1  1  0  0  0
 82142  1  0  0  0  0
 82143  1  0  0  0  0
 82144  1  0  0  0  0
 83 84  1  0  0  0  0
 83 85  1  0  0  0  0
 83145  1  0  0  0  0
 84 85  1  0  0  0  0
 84146  1  0  0  0  0
 84147  1  0  0  0  0
 85148  1  0  0  0  0
 85149  1  0  0  0  0
 86150  1  0  0  0  0
 86151  1  0  0  0  0
M  CHG  5   4   1  31  -1  47  -1  61  -1  79   1
M  END
$$$$
