3_2_7294
 OpenBabel04152301373D

139149  0  0  1  0  0  0  0  0999 V2000
    0.2806   -1.1453   -2.4422 C   0  0  0  0  0  0  0  0  0  0  0  0
    0.2148   -0.0124   -1.4150 C   0  0  2  0  0  0  0  0  0  0  0  0
    1.0408   -0.2542   -0.2445 N   0  0  0  0  0  0  0  0  0  0  0  0
    2.3784   -0.4728   -0.1520 C   0  0  0  0  0  0  0  0  0  0  0  0
    2.8950   -0.6576    0.9475 O   0  0  0  0  0  0  0  0  0  0  0  0
    3.0899   -0.5561   -1.3314 N   0  0  0  0  0  0  0  0  0  0  0  0
    3.8752   -1.7656   -1.5021 C   0  0  0  0  0  0  0  0  0  0  0  0
    4.7497   -1.5280   -2.7203 C   0  0  0  0  0  0  0  0  0  0  0  0
    4.9048   -0.0079   -2.7861 C   0  0  1  0  0  0  0  0  0  0  0  0
    4.9184    0.6275   -4.1714 C   0  0  0  0  0  0  0  0  0  0  0  0
    5.8310    1.4146   -4.4542 O   0  0  0  0  0  0  0  0  0  0  0  0
    3.9904    0.4343   -5.1392 N   0  0  0  0  0  0  0  0  0  0  0  0
    2.8175   -0.4157   -5.2496 C   0  0  0  0  0  0  0  0  0  0  0  0
    1.5164    0.3592   -5.4405 C   0  0  0  0  0  0  0  0  0  0  0  0
    1.4440    1.1947   -6.7115 C   0  0  0  0  0  0  0  0  0  0  0  0
    1.0927    0.3964   -7.8736 N   0  0  0  0  0  0  0  0  0  0  0  0
   -0.0669    0.3656   -8.6128 C   0  0  0  0  0  0  0  0  0  0  0  0
   -0.2317   -0.5538   -9.4114 O   0  0  0  0  0  0  0  0  0  0  0  0
   -1.1180    1.4045   -8.4599 C   0  0  0  0  0  0  0  0  0  0  0  0
   -2.4600    1.0271   -8.5894 C   0  0  0  0  0  0  0  0  0  0  0  0
   -3.4750    1.9878   -8.5031 C   0  0  0  0  0  0  0  0  0  0  0  0
   -3.1644    3.3315   -8.2444 C   0  0  0  0  0  0  0  0  0  0  0  0
   -4.2201    4.3799   -8.1983 C   0  0  0  0  0  0  0  0  0  0  0  0
   -4.2196    5.4904   -9.2210 C   0  0  0  0  0  0  0  0  0  0  0  0
   -5.0007    6.5375   -9.3075 N   0  0  0  0  0  0  0  0  0  0  0  0
   -4.5310    7.2733  -10.3908 C   0  0  0  0  0  0  0  0  0  0  0  0
   -5.0269    8.4143  -10.9282 C   0  0  0  0  0  0  0  0  0  0  0  0
   -4.2899    9.0013  -12.1034 C   0  0  0  0  0  0  0  0  0  0  0  0
   -4.3189    8.3767  -13.3638 C   0  0  0  0  0  0  0  0  0  0  0  0
   -3.5971    8.9096  -14.4349 C   0  0  0  0  0  0  0  0  0  0  0  0
   -2.8686   10.0893  -14.2568 C   0  0  0  0  0  0  0  0  0  0  0  0
   -1.9395   10.7625  -15.6620 S   0  0  0  0  0  0  0  0  0  0  0  0
   -0.7713    9.8859  -15.6953 O   0  0  0  0  0  0  0  0  0  0  0  0
   -2.8738   10.6048  -16.7735 O   0  0  0  0  0  0  0  0  0  0  0  0
   -1.6716   12.1437  -15.2691 O   0  5  0  0  0  0  0  0  0  0  0  0
   -2.8686   10.7512  -13.0270 C   0  0  0  0  0  0  0  0  0  0  0  0
   -3.5694   10.1996  -11.9502 C   0  0  0  0  0  0  0  0  0  0  0  0
   -6.2018    9.0897  -10.4475 C   0  0  0  0  0  0  0  0  0  0  0  0
   -6.8086   10.2281  -10.9496 C   0  0  0  0  0  0  0  0  0  0  0  0
   -7.9212   10.5185  -10.1518 C   0  0  0  0  0  0  0  0  0  0  0  0
   -8.0294    9.5368   -9.1800 C   0  0  0  0  0  0  0  0  0  0  0  0
   -6.9596    8.6778   -9.3624 N   0  0  0  0  0  0  0  0  0  0  0  0
   -9.0397    9.3894   -8.1644 C   0  0  0  0  0  0  0  0  0  0  0  0
  -10.1915   10.3571   -8.1763 C   0  0  0  0  0  0  0  0  0  0  0  0
  -10.3015   11.3760   -7.2144 C   0  0  0  0  0  0  0  0  0  0  0  0
  -11.3771   12.2679   -7.2525 C   0  0  0  0  0  0  0  0  0  0  0  0
  -12.3322   12.1566   -8.2682 C   0  0  0  0  0  0  0  0  0  0  0  0
  -13.7031   13.3438   -8.3190 S   0  0  0  0  0  0  0  0  0  0  0  0
  -14.5880   12.8295   -7.2777 O   0  0  0  0  0  0  0  0  0  0  0  0
  -13.0448   14.6121   -8.0146 O   0  0  0  0  0  0  0  0  0  0  0  0
  -14.2109   13.2259   -9.6841 O   0  5  0  0  0  0  0  0  0  0  0  0
  -12.2193   11.1718   -9.2516 C   0  0  0  0  0  0  0  0  0  0  0  0
  -11.1555   10.2682   -9.1973 C   0  0  0  0  0  0  0  0  0  0  0  0
   -9.0485    8.4210   -7.2153 C   0  0  0  0  0  0  0  0  0  0  0  0
   -8.1448    7.3824   -7.0160 N   0  0  0  0  0  0  0  0  0  0  0  0
   -8.5875    6.7201   -5.9738 C   0  0  0  0  0  0  0  0  0  0  0  0
   -8.0286    5.4763   -5.3364 C   0  0  0  0  0  0  0  0  0  0  0  0
   -8.6839    4.8746   -4.1433 C   0  0  0  0  0  0  0  0  0  0  0  0
   -9.9220    4.2201   -4.2699 C   0  0  0  0  0  0  0  0  0  0  0  0
  -10.5479    3.6650   -3.1504 C   0  0  0  0  0  0  0  0  0  0  0  0
   -9.9245    3.7425   -1.9020 C   0  0  0  0  0  0  0  0  0  0  0  0
  -10.7406    2.9833   -0.4698 S   0  0  0  0  0  0  0  0  0  0  0  0
  -11.8137    3.9336   -0.1948 O   0  0  0  0  0  0  0  0  0  0  0  0
  -11.1634    1.6876   -0.9959 O   0  0  0  0  0  0  0  0  0  0  0  0
   -9.6829    2.9257    0.5363 O   0  5  0  0  0  0  0  0  0  0  0  0
   -8.6829    4.3660   -1.7610 C   0  0  0  0  0  0  0  0  0  0  0  0
   -8.0719    4.9429   -2.8788 C   0  0  0  0  0  0  0  0  0  0  0  0
   -6.9464    4.8840   -5.8786 C   0  0  0  0  0  0  0  0  0  0  0  0
   -6.3128    3.6658   -5.3819 C   0  0  0  0  0  0  0  0  0  0  0  0
   -5.2525    3.3747   -6.1542 C   0  0  0  0  0  0  0  0  0  0  0  0
   -5.1510    4.3700   -7.2236 C   0  0  0  0  0  0  0  0  0  0  0  0
   -6.1913    5.2312   -6.9741 N   0  0  0  0  0  0  0  0  0  0  0  0
   -9.8040    7.2846   -5.3721 C   0  0  0  0  0  0  0  0  0  0  0  0
  -10.0648    8.2949   -6.1909 C   0  0  0  0  0  0  0  0  0  0  0  0
   -3.3717    6.5764  -10.9027 C   0  0  0  0  0  0  0  0  0  0  0  0
   -3.1849    5.4296  -10.2670 C   0  0  0  0  0  0  0  0  0  0  0  0
   -1.8176    3.6963   -8.1012 C   0  0  0  0  0  0  0  0  0  0  0  0
   -0.8037    2.7531   -8.2743 C   0  0  0  0  0  0  0  0  0  0  0  0
    3.9257    0.5719   -1.7452 C   0  0  1  0  0  0  0  0  0  0  0  0
    3.1644    1.8230   -2.1490 C   0  0  0  0  0  0  0  0  0  0  0  0
   -1.2368    0.2339   -1.0231 C   0  0  0  0  0  0  0  0  0  0  0  0
   -1.7707    1.5321   -1.0738 C   0  0  0  0  0  0  0  0  0  0  0  0
   -3.1375    1.7467   -0.8700 C   0  0  0  0  0  0  0  0  0  0  0  0
   -3.9776    0.6687   -0.6038 C   0  0  0  0  0  0  0  0  0  0  0  0
   -5.6681    0.9197   -0.4347 Cl  0  0  0  0  0  0  0  0  0  0  0  0
   -3.4574   -0.6168   -0.4921 C   0  0  0  0  0  0  0  0  0  0  0  0
   -2.0911   -0.8305   -0.6827 C   0  0  0  0  0  0  0  0  0  0  0  0
   -0.3463   -0.9075   -3.2761 H   0  0  0  0  0  0  0  0  0  0  0  0
   -0.0556   -2.0556   -1.9913 H   0  0  0  0  0  0  0  0  0  0  0  0
    1.2897   -1.2647   -2.7773 H   0  0  0  0  0  0  0  0  0  0  0  0
    0.6168    0.8652   -1.8766 H   0  0  0  0  0  0  0  0  0  0  0  0
    0.5571   -0.2606    0.6129 H   0  0  0  0  0  0  0  0  0  0  0  0
    3.2331   -2.6061   -1.6636 H   0  0  0  0  0  0  0  0  0  0  0  0
    4.4626   -1.9775   -0.6332 H   0  0  0  0  0  0  0  0  0  0  0  0
    4.2756   -1.8989   -3.6049 H   0  0  0  0  0  0  0  0  0  0  0  0
    5.6913   -2.0316   -2.6511 H   0  0  0  0  0  0  0  0  0  0  0  0
    5.9046    0.2685   -2.5237 H   0  0  0  0  0  0  0  0  0  0  0  0
    4.1436    0.9883   -5.9385 H   0  0  0  0  0  0  0  0  0  0  0  0
    2.7363   -0.9978   -4.3555 H   0  0  0  0  0  0  0  0  0  0  0  0
    2.9513   -1.0231   -6.1202 H   0  0  0  0  0  0  0  0  0  0  0  0
    1.3958    1.0160   -4.6045 H   0  0  0  0  0  0  0  0  0  0  0  0
    0.7413   -0.3741   -5.5208 H   0  0  0  0  0  0  0  0  0  0  0  0
    2.3983    1.6482   -6.8806 H   0  0  0  0  0  0  0  0  0  0  0  0
    0.6808    1.9324   -6.5767 H   0  0  0  0  0  0  0  0  0  0  0  0
    1.7961   -0.2202   -8.1806 H   0  0  0  0  0  0  0  0  0  0  0  0
   -2.7021    0.0367   -8.7491 H   0  0  0  0  0  0  0  0  0  0  0  0
   -4.4594    1.7054   -8.6308 H   0  0  0  0  0  0  0  0  0  0  0  0
   -4.8771    7.5191  -13.4981 H   0  0  0  0  0  0  0  0  0  0  0  0
   -3.6018    8.4354  -15.3515 H   0  0  0  0  0  0  0  0  0  0  0  0
   -2.3558   11.6396  -12.9140 H   0  0  0  0  0  0  0  0  0  0  0  0
   -3.5579   10.6759  -11.0348 H   0  0  0  0  0  0  0  0  0  0  0  0
   -6.4948   10.7692  -11.7704 H   0  0  0  0  0  0  0  0  0  0  0  0
   -8.5532   11.3261  -10.2676 H   0  0  0  0  0  0  0  0  0  0  0  0
   -6.7655    7.8906   -8.8040 H   0  0  0  0  0  0  0  0  0  0  0  0
   -9.5852   11.4660   -6.4770 H   0  0  0  0  0  0  0  0  0  0  0  0
  -11.4660   13.0045   -6.5351 H   0  0  0  0  0  0  0  0  0  0  0  0
  -12.9152   11.1121  -10.0113 H   0  0  0  0  0  0  0  0  0  0  0  0
  -11.0759    9.5286   -9.9126 H   0  0  0  0  0  0  0  0  0  0  0  0
  -10.3717    4.1492   -5.1961 H   0  0  0  0  0  0  0  0  0  0  0  0
  -11.4647    3.2008   -3.2450 H   0  0  0  0  0  0  0  0  0  0  0  0
   -8.2200    4.4007   -0.8393 H   0  0  0  0  0  0  0  0  0  0  0  0
   -7.1642    5.4228   -2.7750 H   0  0  0  0  0  0  0  0  0  0  0  0
   -6.6289    3.1161   -4.5677 H   0  0  0  0  0  0  0  0  0  0  0  0
   -4.6121    2.5773   -6.0159 H   0  0  0  0  0  0  0  0  0  0  0  0
   -6.3789    6.0232   -7.5279 H   0  0  0  0  0  0  0  0  0  0  0  0
  -10.3196    6.9760   -4.5331 H   0  0  0  0  0  0  0  0  0  0  0  0
  -10.8873    8.9127   -6.1086 H   0  0  0  0  0  0  0  0  0  0  0  0
   -2.7690    6.9268  -11.6636 H   0  0  0  0  0  0  0  0  0  0  0  0
   -2.4939    4.6866  -10.4557 H   0  0  0  0  0  0  0  0  0  0  0  0
   -1.5742    4.6711   -7.8657 H   0  0  0  0  0  0  0  0  0  0  0  0
    0.1836    3.0534   -8.2652 H   0  0  0  0  0  0  0  0  0  0  0  0
    4.4738    0.9769   -0.9203 H   0  0  0  0  0  0  0  0  0  0  0  0
    2.5396    1.6045   -2.9897 H   0  0  0  0  0  0  0  0  0  0  0  0
    3.8586    2.5939   -2.4113 H   0  0  0  0  0  0  0  0  0  0  0  0
    2.5588    2.1518   -1.3304 H   0  0  0  0  0  0  0  0  0  0  0  0
   -1.1493    2.3340   -1.2630 H   0  0  0  0  0  0  0  0  0  0  0  0
   -3.5230    2.7029   -0.9168 H   0  0  0  0  0  0  0  0  0  0  0  0
   -4.0794   -1.4096   -0.2691 H   0  0  0  0  0  0  0  0  0  0  0  0
   -1.7033   -1.7805   -0.5726 H   0  0  0  0  0  0  0  0  0  0  0  0
  1 88  1  0  0  0  0
  1 89  1  0  0  0  0
  1 90  1  0  0  0  0
  2 81  1  0  0  0  0
  2  3  1  0  0  0  0
  2  1  1  0  0  0  0
  2 91  1  6  0  0  0
  3  4  1  0  0  0  0
  3 92  1  0  0  0  0
  4  5  2  0  0  0  0
  4  6  1  0  0  0  0
  6  7  1  0  0  0  0
  6 79  1  0  0  0  0
  7  8  1  0  0  0  0
  7 93  1  0  0  0  0
  7 94  1  0  0  0  0
  8  9  1  0  0  0  0
  8 95  1  0  0  0  0
  8 96  1  0  0  0  0
  9 10  1  0  0  0  0
  9 79  1  0  0  0  0
  9 97  1  1  0  0  0
 10 11  2  0  0  0  0
 10 12  1  0  0  0  0
 12 13  1  0  0  0  0
 12 98  1  0  0  0  0
 13 14  1  0  0  0  0
 13 99  1  0  0  0  0
 13100  1  0  0  0  0
 14 15  1  0  0  0  0
 14101  1  0  0  0  0
 14102  1  0  0  0  0
 15 16  1  0  0  0  0
 15103  1  0  0  0  0
 15104  1  0  0  0  0
 16 17  1  0  0  0  0
 16105  1  0  0  0  0
 17 18  2  0  0  0  0
 17 19  1  0  0  0  0
 19 20  1  0  0  0  0
 19 78  2  0  0  0  0
 20 21  2  0  0  0  0
 20106  1  0  0  0  0
 21 22  1  0  0  0  0
 21107  1  0  0  0  0
 22 23  1  0  0  0  0
 22 77  2  0  0  0  0
 23 24  1  0  0  0  0
 23 71  2  0  0  0  0
 24 25  2  0  0  0  0
 24 76  1  0  0  0  0
 25 26  1  0  0  0  0
 26 27  2  0  0  0  0
 26 75  1  0  0  0  0
 27 28  1  0  0  0  0
 27 38  1  0  0  0  0
 28 29  1  0  0  0  0
 28 37  2  0  0  0  0
 29 30  2  0  0  0  0
 29108  1  0  0  0  0
 30 31  1  0  0  0  0
 30109  1  0  0  0  0
 31 32  1  0  0  0  0
 31 36  2  0  0  0  0
 32 33  2  0  0  0  0
 32 34  2  0  0  0  0
 32 35  1  0  0  0  0
 36 37  1  0  0  0  0
 36110  1  0  0  0  0
 37111  1  0  0  0  0
 38 39  2  0  0  0  0
 38 42  1  0  0  0  0
 39 40  1  0  0  0  0
 39112  1  0  0  0  0
 40 41  2  0  0  0  0
 40113  1  0  0  0  0
 41 42  1  0  0  0  0
 41 43  1  0  0  0  0
 42114  1  0  0  0  0
 43 44  1  0  0  0  0
 43 54  2  0  0  0  0
 44 45  1  0  0  0  0
 44 53  2  0  0  0  0
 45 46  2  0  0  0  0
 45115  1  0  0  0  0
 46 47  1  0  0  0  0
 46116  1  0  0  0  0
 47 48  1  0  0  0  0
 47 52  2  0  0  0  0
 48 49  2  0  0  0  0
 48 50  2  0  0  0  0
 48 51  1  0  0  0  0
 52 53  1  0  0  0  0
 52117  1  0  0  0  0
 53118  1  0  0  0  0
 54 55  1  0  0  0  0
 54 74  1  0  0  0  0
 55 56  2  0  0  0  0
 56 57  1  0  0  0  0
 56 73  1  0  0  0  0
 57 58  1  0  0  0  0
 57 68  2  0  0  0  0
 58 59  1  0  0  0  0
 58 67  2  0  0  0  0
 59 60  2  0  0  0  0
 59119  1  0  0  0  0
 60 61  1  0  0  0  0
 60120  1  0  0  0  0
 61 62  1  0  0  0  0
 61 66  2  0  0  0  0
 62 63  2  0  0  0  0
 62 64  2  0  0  0  0
 62 65  1  0  0  0  0
 66 67  1  0  0  0  0
 66121  1  0  0  0  0
 67122  1  0  0  0  0
 68 69  1  0  0  0  0
 68 72  1  0  0  0  0
 69 70  2  0  0  0  0
 69123  1  0  0  0  0
 70 71  1  0  0  0  0
 70124  1  0  0  0  0
 71 72  1  0  0  0  0
 72125  1  0  0  0  0
 73 74  2  0  0  0  0
 73126  1  0  0  0  0
 74127  1  0  0  0  0
 75 76  2  0  0  0  0
 75128  1  0  0  0  0
 76129  1  0  0  0  0
 77 78  1  0  0  0  0
 77130  1  0  0  0  0
 78131  1  0  0  0  0
 79 80  1  0  0  0  0
 79132  1  1  0  0  0
 80133  1  0  0  0  0
 80134  1  0  0  0  0
 80135  1  0  0  0  0
 81 82  1  0  0  0  0
 81 87  2  0  0  0  0
 82 83  2  0  0  0  0
 82136  1  0  0  0  0
 83 84  1  0  0  0  0
 83137  1  0  0  0  0
 84 85  1  0  0  0  0
 84 86  2  0  0  0  0
 86 87  1  0  0  0  0
 86138  1  0  0  0  0
 87139  1  0  0  0  0
M  CHG  3  35  -1  51  -1  65  -1
M  END
$$$$
