3_3_4350
 OpenBabel04152301363D

127137  0  0  0  0  0  0  0  0999 V2000
    1.6746    0.1889   -0.4149 C   0  0  0  0  0  0  0  0  0  0  0  0
    0.8547   -0.2352   -1.6237 C   0  0  0  0  0  0  0  0  0  0  0  0
    0.9649   -1.7076   -1.9992 C   0  0  0  0  0  0  0  0  0  0  0  0
    0.3339   -2.7927   -1.1673 C   0  0  0  0  0  0  0  0  0  0  0  0
    0.2879   -4.1611   -1.4496 C   0  0  0  0  0  0  0  0  0  0  0  0
    0.6765   -4.8816   -2.6610 C   0  0  0  0  0  0  0  0  0  0  0  0
    0.3891   -6.0583   -2.8629 O   0  0  0  0  0  0  0  0  0  0  0  0
    1.4294   -4.1303   -3.5249 O   0  0  0  0  0  0  0  0  0  0  0  0
    2.1184   -4.8519   -4.5611 C   0  0  0  0  0  0  0  0  0  0  0  0
    3.4900   -5.3231   -4.0956 C   0  0  0  0  0  0  0  0  0  0  0  0
    3.3744   -6.3610   -3.1247 O   0  0  0  0  0  0  0  0  0  0  0  0
    3.3990   -5.9426   -1.8375 C   0  0  0  0  0  0  0  0  0  0  0  0
    3.2309   -4.7999   -1.4436 O   0  0  0  0  0  0  0  0  0  0  0  0
    3.9204   -7.0228   -0.9932 C   0  0  0  0  0  0  0  0  0  0  0  0
    4.1455   -6.7098    0.3503 C   0  0  0  0  0  0  0  0  0  0  0  0
    5.1109   -7.4160    1.0323 C   0  0  0  0  0  0  0  0  0  0  0  0
    5.8179   -8.4116    0.3522 C   0  0  0  0  0  0  0  0  0  0  0  0
    6.9288   -9.0340    1.0349 C   0  0  0  0  0  0  0  0  0  0  0  0
    6.5216  -10.0437    2.0335 C   0  0  0  0  0  0  0  0  0  0  0  0
    6.6500   -9.9900    3.3161 N   0  0  0  0  0  0  0  0  0  0  0  0
    6.1265  -11.1873    3.7899 C   0  0  0  0  0  0  0  0  0  0  0  0
    6.5331  -11.7363    4.9666 C   0  0  0  0  0  0  0  0  0  0  0  0
    6.6285  -13.2253    5.1828 C   0  0  0  0  0  0  0  0  0  0  0  0
    6.9931  -13.7053    6.4551 C   0  0  0  0  0  0  0  0  0  0  0  0
    7.4328  -15.0234    6.6316 C   0  0  0  0  0  0  0  0  0  0  0  0
    7.4665  -15.8947    5.5419 C   0  0  0  0  0  0  0  0  0  0  0  0
    8.1587  -17.5517    5.7475 S   0  0  0  0  0  0  0  0  0  0  0  0
    9.5678  -17.2573    5.9880 O   0  0  0  0  0  0  0  0  0  0  0  0
    7.4105  -18.0598    6.8938 O   0  0  0  0  0  0  0  0  0  0  0  0
    7.8615  -18.2064    4.4755 O   0  5  0  0  0  0  0  0  0  0  0  0
    7.0350  -15.4785    4.2920 C   0  0  0  0  0  0  0  0  0  0  0  0
    6.6485  -14.1513    4.1179 C   0  0  0  0  0  0  0  0  0  0  0  0
    7.2531  -10.7943    5.7822 C   0  0  0  0  0  0  0  0  0  0  0  0
    6.9569   -9.5561    6.3190 C   0  0  0  0  0  0  0  0  0  0  0  0
    8.1598   -8.8035    6.1891 C   0  0  0  0  0  0  0  0  0  0  0  0
    9.1325   -9.6423    5.6416 C   0  0  0  0  0  0  0  0  0  0  0  0
    8.6248  -10.9044    5.8170 N   0  0  0  0  0  0  0  0  0  0  0  0
   10.3641   -9.3547    4.9367 C   0  0  0  0  0  0  0  0  0  0  0  0
   10.9115   -7.9552    5.0957 C   0  0  0  0  0  0  0  0  0  0  0  0
   10.9453   -7.0040    4.0576 C   0  0  0  0  0  0  0  0  0  0  0  0
   11.3451   -5.6825    4.3084 C   0  0  0  0  0  0  0  0  0  0  0  0
   11.6889   -5.2998    5.6085 C   0  0  0  0  0  0  0  0  0  0  0  0
   12.1691   -3.5807    5.9350 S   0  0  0  0  0  0  0  0  0  0  0  0
   13.4527   -3.4738    5.2472 O   0  0  0  0  0  0  0  0  0  0  0  0
   11.0723   -2.8181    5.3426 O   0  0  0  0  0  0  0  0  0  0  0  0
   12.2428   -3.5099    7.3941 O   0  5  0  0  0  0  0  0  0  0  0  0
   11.6345   -6.2198    6.6553 C   0  0  0  0  0  0  0  0  0  0  0  0
   11.2556   -7.5383    6.3946 C   0  0  0  0  0  0  0  0  0  0  0  0
   10.9066  -10.1770    3.9887 C   0  0  0  0  0  0  0  0  0  0  0  0
   11.7593   -9.6917    3.0049 N   0  0  0  0  0  0  0  0  0  0  0  0
   11.5964  -10.4935    1.9886 C   0  0  0  0  0  0  0  0  0  0  0  0
   11.5635  -10.0350    0.5716 C   0  0  0  0  0  0  0  0  0  0  0  0
   12.3699  -10.6752   -0.5021 C   0  0  0  0  0  0  0  0  0  0  0  0
   13.6026  -11.2895   -0.2131 C   0  0  0  0  0  0  0  0  0  0  0  0
   14.2105  -12.1629   -1.1332 C   0  0  0  0  0  0  0  0  0  0  0  0
   13.5980  -12.4151   -2.3638 C   0  0  0  0  0  0  0  0  0  0  0  0
   14.2842  -13.6833   -3.4696 S   0  0  0  0  0  0  0  0  0  0  0  0
   15.5075  -13.0482   -3.9502 O   0  0  0  0  0  0  0  0  0  0  0  0
   14.4705  -14.8198   -2.5724 O   0  0  0  0  0  0  0  0  0  0  0  0
   13.2406  -13.8605   -4.4787 O   0  5  0  0  0  0  0  0  0  0  0  0
   12.4103  -11.7739   -2.6989 C   0  0  0  0  0  0  0  0  0  0  0  0
   11.8051  -10.9186   -1.7722 C   0  0  0  0  0  0  0  0  0  0  0  0
   10.4387   -9.2908    0.4133 C   0  0  0  0  0  0  0  0  0  0  0  0
   10.0038   -8.4493   -0.6919 C   0  0  0  0  0  0  0  0  0  0  0  0
    8.7091   -8.1060   -0.5009 C   0  0  0  0  0  0  0  0  0  0  0  0
    8.2065   -8.8072    0.6831 C   0  0  0  0  0  0  0  0  0  0  0  0
    9.3351   -9.2998    1.2532 N   0  0  0  0  0  0  0  0  0  0  0  0
   10.9836  -11.7770    2.3064 C   0  0  0  0  0  0  0  0  0  0  0  0
   10.5228  -11.5117    3.5325 C   0  0  0  0  0  0  0  0  0  0  0  0
    5.4023  -11.7779    2.6935 C   0  0  0  0  0  0  0  0  0  0  0  0
    5.7277  -11.1835    1.5477 C   0  0  0  0  0  0  0  0  0  0  0  0
    5.4611   -8.8466   -0.9217 C   0  0  0  0  0  0  0  0  0  0  0  0
    4.4816   -8.1586   -1.5956 C   0  0  0  0  0  0  0  0  0  0  0  0
   -0.1178   -4.8401   -0.3273 N   0  0  0  0  0  0  0  0  0  0  0  0
   -0.3024   -3.9636    0.6439 N   0  0  0  0  0  0  0  0  0  0  0  0
   -0.2034   -2.7262    0.1108 N   0  0  0  0  0  0  0  0  0  0  0  0
   -0.8310   -1.6630    0.7887 C   0  0  0  0  0  0  0  0  0  0  0  0
   -0.5451   -1.4399    2.1388 C   0  0  0  0  0  0  0  0  0  0  0  0
   -1.1232   -0.3492    2.7867 C   0  0  0  0  0  0  0  0  0  0  0  0
   -2.0210    0.4775    2.1047 C   0  0  0  0  0  0  0  0  0  0  0  0
   -2.3696    0.2118    0.7704 C   0  0  0  0  0  0  0  0  0  0  0  0
   -3.3654    1.0857    0.0521 C   0  0  0  0  0  0  0  0  0  0  0  0
   -4.5895    1.0867    0.6481 F   0  0  0  0  0  0  0  0  0  0  0  0
   -2.9737    2.3890   -0.0016 F   0  0  0  0  0  0  0  0  0  0  0  0
   -3.5827    0.7129   -1.2414 F   0  0  0  0  0  0  0  0  0  0  0  0
   -1.7711   -0.8748    0.1190 C   0  0  0  0  0  0  0  0  0  0  0  0
    1.5299    1.2336   -0.2345 H   0  0  0  0  0  0  0  0  0  0  0  0
    2.7109   -0.0004   -0.6026 H   0  0  0  0  0  0  0  0  0  0  0  0
    1.3599   -0.3681    0.4428 H   0  0  0  0  0  0  0  0  0  0  0  0
    1.1776    0.3452   -2.4626 H   0  0  0  0  0  0  0  0  0  0  0  0
   -0.1693   -0.0724   -1.3594 H   0  0  0  0  0  0  0  0  0  0  0  0
    2.0109   -1.9295   -2.0373 H   0  0  0  0  0  0  0  0  0  0  0  0
    0.3905   -1.7531   -2.9008 H   0  0  0  0  0  0  0  0  0  0  0  0
    2.2403   -4.2109   -5.4091 H   0  0  0  0  0  0  0  0  0  0  0  0
    1.5359   -5.7128   -4.8150 H   0  0  0  0  0  0  0  0  0  0  0  0
    4.0150   -4.4971   -3.6632 H   0  0  0  0  0  0  0  0  0  0  0  0
    4.0224   -5.7064   -4.9409 H   0  0  0  0  0  0  0  0  0  0  0  0
    3.6020   -5.9683    0.8191 H   0  0  0  0  0  0  0  0  0  0  0  0
    5.3084   -7.2144    2.0250 H   0  0  0  0  0  0  0  0  0  0  0  0
    6.9355  -13.0758    7.2709 H   0  0  0  0  0  0  0  0  0  0  0  0
    7.7309  -15.3492    7.5644 H   0  0  0  0  0  0  0  0  0  0  0  0
    7.0006  -16.1419    3.5022 H   0  0  0  0  0  0  0  0  0  0  0  0
    6.3669  -13.8341    3.1771 H   0  0  0  0  0  0  0  0  0  0  0  0
    6.0607   -9.2446    6.7251 H   0  0  0  0  0  0  0  0  0  0  0  0
    8.2891   -7.8142    6.4528 H   0  0  0  0  0  0  0  0  0  0  0  0
    9.1430  -11.7318    5.9437 H   0  0  0  0  0  0  0  0  0  0  0  0
   10.6730   -7.2820    3.1018 H   0  0  0  0  0  0  0  0  0  0  0  0
   11.3851   -4.9972    3.5378 H   0  0  0  0  0  0  0  0  0  0  0  0
   11.8727   -5.9281    7.6161 H   0  0  0  0  0  0  0  0  0  0  0  0
   11.2275   -8.2196    7.1692 H   0  0  0  0  0  0  0  0  0  0  0  0
   14.0678  -11.0963    0.6876 H   0  0  0  0  0  0  0  0  0  0  0  0
   15.1075  -12.6168   -0.8998 H   0  0  0  0  0  0  0  0  0  0  0  0
   11.9790  -11.9279   -3.6237 H   0  0  0  0  0  0  0  0  0  0  0  0
   10.9199  -10.4520   -2.0246 H   0  0  0  0  0  0  0  0  0  0  0  0
   10.5885   -8.1611   -1.4919 H   0  0  0  0  0  0  0  0  0  0  0  0
    8.1655   -7.4574   -1.0916 H   0  0  0  0  0  0  0  0  0  0  0  0
    9.3676   -9.6333    2.1789 H   0  0  0  0  0  0  0  0  0  0  0  0
   10.9230  -12.6416    1.7461 H   0  0  0  0  0  0  0  0  0  0  0  0
    9.9613  -12.1723    4.0922 H   0  0  0  0  0  0  0  0  0  0  0  0
    4.7265  -12.5526    2.7837 H   0  0  0  0  0  0  0  0  0  0  0  0
    5.4879  -11.4501    0.5800 H   0  0  0  0  0  0  0  0  0  0  0  0
    5.9212   -9.6656   -1.3489 H   0  0  0  0  0  0  0  0  0  0  0  0
    4.1648   -8.4711   -2.5267 H   0  0  0  0  0  0  0  0  0  0  0  0
    0.0869   -2.0756    2.6502 H   0  0  0  0  0  0  0  0  0  0  0  0
   -0.8879   -0.1516    3.7719 H   0  0  0  0  0  0  0  0  0  0  0  0
   -2.4321    1.2920    2.5871 H   0  0  0  0  0  0  0  0  0  0  0  0
   -2.0249   -1.0936   -0.8571 H   0  0  0  0  0  0  0  0  0  0  0  0
  1  2  1  0  0  0  0
  1 87  1  0  0  0  0
  1 88  1  0  0  0  0
  1 89  1  0  0  0  0
  2  3  1  0  0  0  0
  2 90  1  0  0  0  0
  2 91  1  0  0  0  0
  3  4  1  0  0  0  0
  3 92  1  0  0  0  0
  3 93  1  0  0  0  0
  4  5  2  0  0  0  0
  4 76  1  0  0  0  0
  5  6  1  0  0  0  0
  5 74  1  0  0  0  0
  6  7  2  0  0  0  0
  6  8  1  0  0  0  0
  8  9  1  0  0  0  0
  9 10  1  0  0  0  0
  9 94  1  0  0  0  0
  9 95  1  0  0  0  0
 10 11  1  0  0  0  0
 10 96  1  0  0  0  0
 10 97  1  0  0  0  0
 11 12  1  0  0  0  0
 12 13  2  0  0  0  0
 12 14  1  0  0  0  0
 14 15  1  0  0  0  0
 14 73  2  0  0  0  0
 15 16  2  0  0  0  0
 15 98  1  0  0  0  0
 16 17  1  0  0  0  0
 16 99  1  0  0  0  0
 17 18  1  0  0  0  0
 17 72  2  0  0  0  0
 18 19  1  0  0  0  0
 18 66  2  0  0  0  0
 19 20  2  0  0  0  0
 19 71  1  0  0  0  0
 20 21  1  0  0  0  0
 21 22  2  0  0  0  0
 21 70  1  0  0  0  0
 22 23  1  0  0  0  0
 22 33  1  0  0  0  0
 23 24  1  0  0  0  0
 23 32  2  0  0  0  0
 24 25  2  0  0  0  0
 24100  1  0  0  0  0
 25 26  1  0  0  0  0
 25101  1  0  0  0  0
 26 27  1  0  0  0  0
 26 31  2  0  0  0  0
 27 28  2  0  0  0  0
 27 29  2  0  0  0  0
 27 30  1  0  0  0  0
 31 32  1  0  0  0  0
 31102  1  0  0  0  0
 32103  1  0  0  0  0
 33 34  2  0  0  0  0
 33 37  1  0  0  0  0
 34 35  1  0  0  0  0
 34104  1  0  0  0  0
 35 36  2  0  0  0  0
 35105  1  0  0  0  0
 36 37  1  0  0  0  0
 36 38  1  0  0  0  0
 37106  1  0  0  0  0
 38 39  1  0  0  0  0
 38 49  2  0  0  0  0
 39 40  1  0  0  0  0
 39 48  2  0  0  0  0
 40 41  2  0  0  0  0
 40107  1  0  0  0  0
 41 42  1  0  0  0  0
 41108  1  0  0  0  0
 42 43  1  0  0  0  0
 42 47  2  0  0  0  0
 43 44  2  0  0  0  0
 43 45  2  0  0  0  0
 43 46  1  0  0  0  0
 47 48  1  0  0  0  0
 47109  1  0  0  0  0
 48110  1  0  0  0  0
 49 50  1  0  0  0  0
 49 69  1  0  0  0  0
 50 51  2  0  0  0  0
 51 52  1  0  0  0  0
 51 68  1  0  0  0  0
 52 53  1  0  0  0  0
 52 63  2  0  0  0  0
 53 54  1  0  0  0  0
 53 62  2  0  0  0  0
 54 55  2  0  0  0  0
 54111  1  0  0  0  0
 55 56  1  0  0  0  0
 55112  1  0  0  0  0
 56 57  1  0  0  0  0
 56 61  2  0  0  0  0
 57 58  2  0  0  0  0
 57 59  2  0  0  0  0
 57 60  1  0  0  0  0
 61 62  1  0  0  0  0
 61113  1  0  0  0  0
 62114  1  0  0  0  0
 63 64  1  0  0  0  0
 63 67  1  0  0  0  0
 64 65  2  0  0  0  0
 64115  1  0  0  0  0
 65 66  1  0  0  0  0
 65116  1  0  0  0  0
 66 67  1  0  0  0  0
 67117  1  0  0  0  0
 68 69  2  0  0  0  0
 68118  1  0  0  0  0
 69119  1  0  0  0  0
 70 71  2  0  0  0  0
 70120  1  0  0  0  0
 71121  1  0  0  0  0
 72 73  1  0  0  0  0
 72122  1  0  0  0  0
 73123  1  0  0  0  0
 74 75  2  0  0  0  0
 75 76  1  0  0  0  0
 76 77  1  0  0  0  0
 77 78  1  0  0  0  0
 77 86  2  0  0  0  0
 78 79  2  0  0  0  0
 78124  1  0  0  0  0
 79 80  1  0  0  0  0
 79125  1  0  0  0  0
 80 81  2  0  0  0  0
 80126  1  0  0  0  0
 81 82  1  0  0  0  0
 81 86  1  0  0  0  0
 82 83  1  0  0  0  0
 82 84  1  0  0  0  0
 82 85  1  0  0  0  0
 86127  1  0  0  0  0
M  CHG  3  30  -1  46  -1  60  -1
M  END
$$$$
