3_3_784
 OpenBabel04152301373D

122132  0  0  0  0  0  0  0  0999 V2000
    2.6635   -0.4642   -2.2883 O   0  0  0  0  0  0  0  0  0  0  0  0
    3.3665   -0.3048   -1.2913 C   0  0  0  0  0  0  0  0  0  0  0  0
    3.4607    0.9362   -0.7620 O   0  0  0  0  0  0  0  0  0  0  0  0
    4.3473    1.4301    0.2515 C   0  0  0  0  0  0  0  0  0  0  0  0
    3.8116    1.3081    1.6790 C   0  0  0  0  0  0  0  0  0  0  0  0
    3.2747    0.0117    1.9925 O   0  0  0  0  0  0  0  0  0  0  0  0
    1.9315   -0.1367    1.8092 C   0  0  0  0  0  0  0  0  0  0  0  0
    1.1534    0.7209    1.4302 O   0  0  0  0  0  0  0  0  0  0  0  0
    1.5599   -1.5427    2.0453 C   0  0  0  0  0  0  0  0  0  0  0  0
    0.6349   -2.1648    1.1888 C   0  0  0  0  0  0  0  0  0  0  0  0
    0.3455   -3.5294    1.3386 C   0  0  0  0  0  0  0  0  0  0  0  0
   -0.5397   -4.2676    0.4259 C   0  0  0  0  0  0  0  0  0  0  0  0
   -1.7553   -4.7924    0.8865 C   0  0  0  0  0  0  0  0  0  0  0  0
   -2.5709   -5.5552    0.0462 C   0  0  0  0  0  0  0  0  0  0  0  0
   -2.1759   -5.8115   -1.2626 C   0  0  0  0  0  0  0  0  0  0  0  0
   -2.9714   -6.5521   -2.0452 F   0  0  0  0  0  0  0  0  0  0  0  0
   -0.9776   -5.3165   -1.7579 C   0  0  0  0  0  0  0  0  0  0  0  0
   -0.5702   -5.6395   -3.1661 C   0  0  0  0  0  0  0  0  0  0  0  0
   -0.4845   -6.9759   -3.4033 F   0  0  0  0  0  0  0  0  0  0  0  0
   -1.4379   -5.1417   -4.0907 F   0  0  0  0  0  0  0  0  0  0  0  0
    0.6489   -5.1254   -3.4965 F   0  0  0  0  0  0  0  0  0  0  0  0
   -0.1742   -4.5352   -0.9072 C   0  0  0  0  0  0  0  0  0  0  0  0
    0.9776   -4.1819    2.3994 C   0  0  0  0  0  0  0  0  0  0  0  0
    1.8337   -3.5924    3.2670 N   0  0  0  0  0  0  0  0  0  0  0  0
    2.1213   -2.2951    3.0663 C   0  0  0  0  0  0  0  0  0  0  0  0
    3.0323   -1.8012    3.9539 O   0  0  0  0  0  0  0  0  0  0  0  0
    3.9227   -1.5275   -0.6272 C   0  0  0  0  0  0  0  0  0  0  0  0
    3.1622   -2.6914   -0.7970 C   0  0  0  0  0  0  0  0  0  0  0  0
    3.5029   -3.8869   -0.1596 C   0  0  0  0  0  0  0  0  0  0  0  0
    4.6678   -3.9791    0.6101 C   0  0  0  0  0  0  0  0  0  0  0  0
    5.1256   -5.3116    1.0820 C   0  0  0  0  0  0  0  0  0  0  0  0
    5.1659   -5.6943    2.5342 C   0  0  0  0  0  0  0  0  0  0  0  0
    5.3890   -6.8704    3.0655 N   0  0  0  0  0  0  0  0  0  0  0  0
    5.2487   -6.7023    4.4406 C   0  0  0  0  0  0  0  0  0  0  0  0
    5.3512   -7.6339    5.4194 C   0  0  0  0  0  0  0  0  0  0  0  0
    5.0662   -7.2210    6.8455 C   0  0  0  0  0  0  0  0  0  0  0  0
    6.0975   -7.2279    7.8038 C   0  0  0  0  0  0  0  0  0  0  0  0
    5.8205   -6.9964    9.1559 C   0  0  0  0  0  0  0  0  0  0  0  0
    4.5075   -6.7369    9.5566 C   0  0  0  0  0  0  0  0  0  0  0  0
    4.1687   -6.4684   11.3205 S   0  0  0  0  0  0  0  0  0  0  0  0
    4.3432   -7.8060   11.8781 O   0  0  0  0  0  0  0  0  0  0  0  0
    5.1885   -5.4911   11.6949 O   0  0  0  0  0  0  0  0  0  0  0  0
    2.7982   -5.9604   11.3361 O   0  5  0  0  0  0  0  0  0  0  0  0
    3.4741   -6.6875    8.6180 C   0  0  0  0  0  0  0  0  0  0  0  0
    3.7529   -6.9420    7.2687 C   0  0  0  0  0  0  0  0  0  0  0  0
    5.7502   -8.9991    5.1776 C   0  0  0  0  0  0  0  0  0  0  0  0
    5.9146  -10.0223    6.0947 C   0  0  0  0  0  0  0  0  0  0  0  0
    6.4509  -11.1250    5.4236 C   0  0  0  0  0  0  0  0  0  0  0  0
    6.5331  -10.8246    4.0722 C   0  0  0  0  0  0  0  0  0  0  0  0
    6.0900   -9.5193    3.9356 N   0  0  0  0  0  0  0  0  0  0  0  0
    6.9969  -11.6689    2.9961 C   0  0  0  0  0  0  0  0  0  0  0  0
    7.5331  -13.0259    3.3659 C   0  0  0  0  0  0  0  0  0  0  0  0
    6.6743  -14.0008    3.9044 C   0  0  0  0  0  0  0  0  0  0  0  0
    7.1871  -15.2080    4.3833 C   0  0  0  0  0  0  0  0  0  0  0  0
    8.5605  -15.4529    4.3003 C   0  0  0  0  0  0  0  0  0  0  0  0
    9.2111  -17.0168    4.9470 S   0  0  0  0  0  0  0  0  0  0  0  0
    9.1879  -16.7861    6.3883 O   0  0  0  0  0  0  0  0  0  0  0  0
    8.2474  -17.9958    4.4496 O   0  0  0  0  0  0  0  0  0  0  0  0
   10.5420  -17.1069    4.3499 O   0  5  0  0  0  0  0  0  0  0  0  0
    9.4233  -14.5146    3.7288 C   0  0  0  0  0  0  0  0  0  0  0  0
    8.9110  -13.2950    3.2808 C   0  0  0  0  0  0  0  0  0  0  0  0
    6.9915  -11.3369    1.6814 C   0  0  0  0  0  0  0  0  0  0  0  0
    6.6075  -10.1436    1.0871 N   0  0  0  0  0  0  0  0  0  0  0  0
    6.8202  -10.2993   -0.1983 C   0  0  0  0  0  0  0  0  0  0  0  0
    6.5825   -9.3205   -1.3046 C   0  0  0  0  0  0  0  0  0  0  0  0
    6.7867   -9.6466   -2.7422 C   0  0  0  0  0  0  0  0  0  0  0  0
    7.7788   -8.9697   -3.4811 C   0  0  0  0  0  0  0  0  0  0  0  0
    7.7924   -9.0340   -4.8755 C   0  0  0  0  0  0  0  0  0  0  0  0
    6.8392   -9.8132   -5.5339 C   0  0  0  0  0  0  0  0  0  0  0  0
    6.7937   -9.7792   -7.3472 S   0  0  0  0  0  0  0  0  0  0  0  0
    6.1835   -8.4776   -7.6057 O   0  0  0  0  0  0  0  0  0  0  0  0
    8.2054   -9.8930   -7.7043 O   0  0  0  0  0  0  0  0  0  0  0  0
    5.9713  -10.9361   -7.6905 O   0  5  0  0  0  0  0  0  0  0  0  0
    5.9106  -10.5700   -4.8140 C   0  0  0  0  0  0  0  0  0  0  0  0
    5.8774  -10.4759   -3.4183 C   0  0  0  0  0  0  0  0  0  0  0  0
    6.1464   -8.0865   -0.9886 C   0  0  0  0  0  0  0  0  0  0  0  0
    5.8398   -7.0421   -1.9586 C   0  0  0  0  0  0  0  0  0  0  0  0
    5.4982   -5.9276   -1.3029 C   0  0  0  0  0  0  0  0  0  0  0  0
    5.4916   -6.2002    0.1376 C   0  0  0  0  0  0  0  0  0  0  0  0
    5.9020   -7.5034    0.2315 N   0  0  0  0  0  0  0  0  0  0  0  0
    7.3550  -11.6119   -0.5730 C   0  0  0  0  0  0  0  0  0  0  0  0
    7.4176  -12.2159    0.6081 C   0  0  0  0  0  0  0  0  0  0  0  0
    4.9654   -5.3033    4.6654 C   0  0  0  0  0  0  0  0  0  0  0  0
    4.9194   -4.6363    3.5185 C   0  0  0  0  0  0  0  0  0  0  0  0
    5.4691   -2.8420    0.7319 C   0  0  0  0  0  0  0  0  0  0  0  0
    5.1023   -1.6325    0.1145 C   0  0  0  0  0  0  0  0  0  0  0  0
    4.5378    2.4642    0.0535 H   0  0  0  0  0  0  0  0  0  0  0  0
    5.2287    0.8252    0.2051 H   0  0  0  0  0  0  0  0  0  0  0  0
    3.0368    2.0342    1.8110 H   0  0  0  0  0  0  0  0  0  0  0  0
    4.6411    1.4672    2.3360 H   0  0  0  0  0  0  0  0  0  0  0  0
    0.1682   -1.6171    0.4490 H   0  0  0  0  0  0  0  0  0  0  0  0
   -2.0517   -4.6131    1.8586 H   0  0  0  0  0  0  0  0  0  0  0  0
   -3.4668   -5.9285    0.3970 H   0  0  0  0  0  0  0  0  0  0  0  0
    0.7097   -4.1465   -1.2714 H   0  0  0  0  0  0  0  0  0  0  0  0
    0.7777   -5.1857    2.5315 H   0  0  0  0  0  0  0  0  0  0  0  0
    3.3011   -0.9052    3.8997 H   0  0  0  0  0  0  0  0  0  0  0  0
    2.3305   -2.6652   -1.4074 H   0  0  0  0  0  0  0  0  0  0  0  0
    2.8890   -4.7107   -0.2574 H   0  0  0  0  0  0  0  0  0  0  0  0
    7.0693   -7.4058    7.5056 H   0  0  0  0  0  0  0  0  0  0  0  0
    6.5814   -7.0172    9.8527 H   0  0  0  0  0  0  0  0  0  0  0  0
    2.5116   -6.4650    8.9165 H   0  0  0  0  0  0  0  0  0  0  0  0
    2.9869   -6.9247    6.5774 H   0  0  0  0  0  0  0  0  0  0  0  0
    5.6818   -9.9788    7.0992 H   0  0  0  0  0  0  0  0  0  0  0  0
    6.7379  -12.0146    5.8610 H   0  0  0  0  0  0  0  0  0  0  0  0
    6.0254   -9.0317    3.0828 H   0  0  0  0  0  0  0  0  0  0  0  0
    5.6586  -13.8228    3.9459 H   0  0  0  0  0  0  0  0  0  0  0  0
    6.5569  -15.9138    4.7953 H   0  0  0  0  0  0  0  0  0  0  0  0
   10.4304  -14.7208    3.6384 H   0  0  0  0  0  0  0  0  0  0  0  0
    9.5479  -12.5863    2.8845 H   0  0  0  0  0  0  0  0  0  0  0  0
    8.5007   -8.4223   -2.9870 H   0  0  0  0  0  0  0  0  0  0  0  0
    8.5001   -8.5107   -5.4144 H   0  0  0  0  0  0  0  0  0  0  0  0
    5.2539  -11.1940   -5.3084 H   0  0  0  0  0  0  0  0  0  0  0  0
    5.1814  -11.0185   -2.8834 H   0  0  0  0  0  0  0  0  0  0  0  0
    5.8799   -7.1460   -2.9846 H   0  0  0  0  0  0  0  0  0  0  0  0
    5.2749   -5.0203   -1.7411 H   0  0  0  0  0  0  0  0  0  0  0  0
    6.0111   -7.9758    1.0884 H   0  0  0  0  0  0  0  0  0  0  0  0
    7.6137  -11.9707   -1.5054 H   0  0  0  0  0  0  0  0  0  0  0  0
    7.7305  -13.1897    0.7456 H   0  0  0  0  0  0  0  0  0  0  0  0
    4.8183   -4.8789    5.5945 H   0  0  0  0  0  0  0  0  0  0  0  0
    4.7527   -3.6302    3.3603 H   0  0  0  0  0  0  0  0  0  0  0  0
    6.3412   -2.8896    1.2817 H   0  0  0  0  0  0  0  0  0  0  0  0
    5.7153   -0.8079    0.2110 H   0  0  0  0  0  0  0  0  0  0  0  0
  1  2  2  0  0  0  0
  2  3  1  0  0  0  0
  2 27  1  0  0  0  0
  3  4  1  0  0  0  0
  4  5  1  0  0  0  0
  4 87  1  0  0  0  0
  4 88  1  0  0  0  0
  5  6  1  0  0  0  0
  5 89  1  0  0  0  0
  5 90  1  0  0  0  0
  6  7  1  0  0  0  0
  7  8  2  0  0  0  0
  7  9  1  0  0  0  0
  9 10  1  0  0  0  0
  9 25  2  0  0  0  0
 10 11  2  0  0  0  0
 10 91  1  0  0  0  0
 11 12  1  0  0  0  0
 11 23  1  0  0  0  0
 12 13  1  0  0  0  0
 12 22  2  0  0  0  0
 13 14  2  0  0  0  0
 13 92  1  0  0  0  0
 14 15  1  0  0  0  0
 14 93  1  0  0  0  0
 15 16  1  0  0  0  0
 15 17  2  0  0  0  0
 17 18  1  0  0  0  0
 17 22  1  0  0  0  0
 18 19  1  0  0  0  0
 18 20  1  0  0  0  0
 18 21  1  0  0  0  0
 22 94  1  0  0  0  0
 23 24  2  0  0  0  0
 23 95  1  0  0  0  0
 24 25  1  0  0  0  0
 25 26  1  0  0  0  0
 26 96  1  0  0  0  0
 27 28  1  0  0  0  0
 27 86  2  0  0  0  0
 28 29  2  0  0  0  0
 28 97  1  0  0  0  0
 29 30  1  0  0  0  0
 29 98  1  0  0  0  0
 30 31  1  0  0  0  0
 30 85  2  0  0  0  0
 31 32  1  0  0  0  0
 31 79  2  0  0  0  0
 32 33  2  0  0  0  0
 32 84  1  0  0  0  0
 33 34  1  0  0  0  0
 34 35  2  0  0  0  0
 34 83  1  0  0  0  0
 35 36  1  0  0  0  0
 35 46  1  0  0  0  0
 36 37  1  0  0  0  0
 36 45  2  0  0  0  0
 37 38  2  0  0  0  0
 37 99  1  0  0  0  0
 38 39  1  0  0  0  0
 38100  1  0  0  0  0
 39 40  1  0  0  0  0
 39 44  2  0  0  0  0
 40 41  2  0  0  0  0
 40 42  2  0  0  0  0
 40 43  1  0  0  0  0
 44 45  1  0  0  0  0
 44101  1  0  0  0  0
 45102  1  0  0  0  0
 46 47  2  0  0  0  0
 46 50  1  0  0  0  0
 47 48  1  0  0  0  0
 47103  1  0  0  0  0
 48 49  2  0  0  0  0
 48104  1  0  0  0  0
 49 50  1  0  0  0  0
 49 51  1  0  0  0  0
 50105  1  0  0  0  0
 51 52  1  0  0  0  0
 51 62  2  0  0  0  0
 52 53  1  0  0  0  0
 52 61  2  0  0  0  0
 53 54  2  0  0  0  0
 53106  1  0  0  0  0
 54 55  1  0  0  0  0
 54107  1  0  0  0  0
 55 56  1  0  0  0  0
 55 60  2  0  0  0  0
 56 57  2  0  0  0  0
 56 58  2  0  0  0  0
 56 59  1  0  0  0  0
 60 61  1  0  0  0  0
 60108  1  0  0  0  0
 61109  1  0  0  0  0
 62 63  1  0  0  0  0
 62 82  1  0  0  0  0
 63 64  2  0  0  0  0
 64 65  1  0  0  0  0
 64 81  1  0  0  0  0
 65 66  1  0  0  0  0
 65 76  2  0  0  0  0
 66 67  1  0  0  0  0
 66 75  2  0  0  0  0
 67 68  2  0  0  0  0
 67110  1  0  0  0  0
 68 69  1  0  0  0  0
 68111  1  0  0  0  0
 69 70  1  0  0  0  0
 69 74  2  0  0  0  0
 70 71  2  0  0  0  0
 70 72  2  0  0  0  0
 70 73  1  0  0  0  0
 74 75  1  0  0  0  0
 74112  1  0  0  0  0
 75113  1  0  0  0  0
 76 77  1  0  0  0  0
 76 80  1  0  0  0  0
 77 78  2  0  0  0  0
 77114  1  0  0  0  0
 78 79  1  0  0  0  0
 78115  1  0  0  0  0
 79 80  1  0  0  0  0
 80116  1  0  0  0  0
 81 82  2  0  0  0  0
 81117  1  0  0  0  0
 82118  1  0  0  0  0
 83 84  2  0  0  0  0
 83119  1  0  0  0  0
 84120  1  0  0  0  0
 85 86  1  0  0  0  0
 85121  1  0  0  0  0
 86122  1  0  0  0  0
M  CHG  3  43  -1  59  -1  73  -1
M  END
$$$$
