3_3_6689
 OpenBabel04152301373D

124134  0  0  0  0  0  0  0  0999 V2000
    1.5268   -0.7936    1.2266 O   0  0  0  0  0  0  0  0  0  0  0  0
    2.6304   -0.4364    0.8138 C   0  0  0  0  0  0  0  0  0  0  0  0
    3.0267   -0.9048   -0.3923 O   0  0  0  0  0  0  0  0  0  0  0  0
    4.2479   -0.7003   -1.1209 C   0  0  0  0  0  0  0  0  0  0  0  0
    4.2148    0.5512   -2.0143 C   0  0  0  0  0  0  0  0  0  0  0  0
    3.7760    1.7372   -1.3187 O   0  0  0  0  0  0  0  0  0  0  0  0
    2.4404    1.9894   -1.3783 C   0  0  0  0  0  0  0  0  0  0  0  0
    1.6363    1.3871   -2.0705 O   0  0  0  0  0  0  0  0  0  0  0  0
    2.0415    3.0074   -0.3664 C   0  0  0  0  0  0  0  0  0  0  0  0
    0.8102    2.8335    0.2763 C   0  0  0  0  0  0  0  0  0  0  0  0
    0.3479    3.7803    1.1991 C   0  0  0  0  0  0  0  0  0  0  0  0
    1.1064    4.9206    1.5068 C   0  0  0  0  0  0  0  0  0  0  0  0
    0.5201    5.9768    2.3934 C   0  0  0  0  0  0  0  0  0  0  0  0
    0.0556    7.2897    1.8087 C   0  0  0  0  0  0  0  0  0  0  0  0
   -0.5925    8.2705    2.3899 N   0  0  0  0  0  0  0  0  0  0  0  0
   -0.8058    9.2275    1.4035 C   0  0  0  0  0  0  0  0  0  0  0  0
   -1.4959   10.3932    1.4733 C   0  0  0  0  0  0  0  0  0  0  0  0
   -1.6158   11.2101    0.2096 C   0  0  0  0  0  0  0  0  0  0  0  0
   -2.4035   10.7637   -0.8678 C   0  0  0  0  0  0  0  0  0  0  0  0
   -2.5483   11.5495   -2.0143 C   0  0  0  0  0  0  0  0  0  0  0  0
   -1.9328   12.8033   -2.0742 C   0  0  0  0  0  0  0  0  0  0  0  0
   -2.1763   13.8173   -3.5583 S   0  0  0  0  0  0  0  0  0  0  0  0
   -1.4398   13.0587   -4.5667 O   0  0  0  0  0  0  0  0  0  0  0  0
   -3.6290   13.8166   -3.7091 O   0  0  0  0  0  0  0  0  0  0  0  0
   -1.5895   15.1063   -3.2001 O   0  5  0  0  0  0  0  0  0  0  0  0
   -1.1685   13.2760   -1.0058 C   0  0  0  0  0  0  0  0  0  0  0  0
   -0.9995   12.4725    0.1260 C   0  0  0  0  0  0  0  0  0  0  0  0
   -2.1219   10.9089    2.6659 C   0  0  0  0  0  0  0  0  0  0  0  0
   -2.8524   12.0773    2.8152 C   0  0  0  0  0  0  0  0  0  0  0  0
   -3.1986   12.2140    4.1634 C   0  0  0  0  0  0  0  0  0  0  0  0
   -2.7555   11.0912    4.8410 C   0  0  0  0  0  0  0  0  0  0  0  0
   -2.0887   10.3042    3.9125 N   0  0  0  0  0  0  0  0  0  0  0  0
   -2.9249   10.7549    6.2329 C   0  0  0  0  0  0  0  0  0  0  0  0
   -3.7023   11.7032    7.1173 C   0  0  0  0  0  0  0  0  0  0  0  0
   -3.0906   12.3788    8.1902 C   0  0  0  0  0  0  0  0  0  0  0  0
   -3.8415   13.2064    9.0317 C   0  0  0  0  0  0  0  0  0  0  0  0
   -5.2015   13.4016    8.7750 C   0  0  0  0  0  0  0  0  0  0  0  0
   -6.1531   14.4769    9.8841 S   0  0  0  0  0  0  0  0  0  0  0  0
   -6.2207   13.6746   11.1025 O   0  0  0  0  0  0  0  0  0  0  0  0
   -5.3176   15.6725    9.9644 O   0  0  0  0  0  0  0  0  0  0  0  0
   -7.4247   14.6577    9.1873 O   0  5  0  0  0  0  0  0  0  0  0  0
   -5.8152   12.7884    7.6818 C   0  0  0  0  0  0  0  0  0  0  0  0
   -5.0691   11.9301    6.8674 C   0  0  0  0  0  0  0  0  0  0  0  0
   -2.4583    9.6121    6.7969 C   0  0  0  0  0  0  0  0  0  0  0  0
   -1.7383    8.5743    6.2088 N   0  0  0  0  0  0  0  0  0  0  0  0
   -1.4923    7.7191    7.1724 C   0  0  0  0  0  0  0  0  0  0  0  0
   -0.7907    6.3847    7.1047 C   0  0  0  0  0  0  0  0  0  0  0  0
   -0.6197    5.5668    8.3435 C   0  0  0  0  0  0  0  0  0  0  0  0
   -1.7262    5.0376    9.0335 C   0  0  0  0  0  0  0  0  0  0  0  0
   -1.5500    4.3485   10.2392 C   0  0  0  0  0  0  0  0  0  0  0  0
   -0.2599    4.1502   10.7390 C   0  0  0  0  0  0  0  0  0  0  0  0
   -0.0493    3.2277   12.2876 S   0  0  0  0  0  0  0  0  0  0  0  0
   -0.5812    4.1620   13.2744 O   0  0  0  0  0  0  0  0  0  0  0  0
   -0.8513    2.0304   12.0504 O   0  0  0  0  0  0  0  0  0  0  0  0
    1.3927    2.9995   12.3558 O   0  5  0  0  0  0  0  0  0  0  0  0
    0.8528    4.6355   10.0514 C   0  0  0  0  0  0  0  0  0  0  0  0
    0.6691    5.3565    8.8685 C   0  0  0  0  0  0  0  0  0  0  0  0
   -0.3040    5.9434    5.9249 C   0  0  0  0  0  0  0  0  0  0  0  0
    0.3331    4.6451    5.7111 C   0  0  0  0  0  0  0  0  0  0  0  0
    0.6991    4.5376    4.4226 C   0  0  0  0  0  0  0  0  0  0  0  0
    0.3177    5.7531    3.7092 C   0  0  0  0  0  0  0  0  0  0  0  0
   -0.2723    6.5321    4.6799 N   0  0  0  0  0  0  0  0  0  0  0  0
   -2.0052    8.1349    8.4870 C   0  0  0  0  0  0  0  0  0  0  0  0
   -2.6376    9.2604    8.1888 C   0  0  0  0  0  0  0  0  0  0  0  0
   -0.1597    8.7382    0.2036 C   0  0  0  0  0  0  0  0  0  0  0  0
    0.3524    7.5291    0.3886 C   0  0  0  0  0  0  0  0  0  0  0  0
    2.3683    5.0597    0.8991 C   0  0  0  0  0  0  0  0  0  0  0  0
    2.8299    4.1168   -0.0413 C   0  0  0  0  0  0  0  0  0  0  0  0
    3.4133    0.5229    1.6720 C   0  0  0  0  0  0  0  0  0  0  0  0
    4.6408    1.1150    1.3597 C   0  0  0  0  0  0  0  0  0  0  0  0
    5.2030    2.1051    2.1661 C   0  0  0  0  0  0  0  0  0  0  0  0
    4.5682    2.4959    3.3356 C   0  0  0  0  0  0  0  0  0  0  0  0
    5.1680    3.5186    4.1211 C   0  0  0  0  0  0  0  0  0  0  0  0
    5.7703    4.3593    4.7236 C   0  0  0  0  0  0  0  0  0  0  0  0
    6.6173    5.3801    5.4684 C   0  0  0  0  0  0  0  0  0  0  0  0
    7.2948    6.1458    6.0910 C   0  0  0  0  0  0  0  0  0  0  0  0
    8.0754    7.0434    6.9014 C   0  0  1  0  0  0  0  0  0  0  0  0
    7.7664    8.5490    6.7287 C   0  0  0  0  0  0  0  0  0  0  0  0
    7.9470    8.6887    8.2580 C   0  0  1  0  0  0  0  0  0  0  0  0
    7.0777    9.6152    8.9271 O   0  0  0  0  0  0  0  0  0  0  0  0
    7.5823    7.1914    8.3617 C   0  0  0  0  0  0  0  0  0  0  0  0
    3.3806    1.8845    3.7127 C   0  0  0  0  0  0  0  0  0  0  0  0
    2.8028    0.9183    2.8800 C   0  0  0  0  0  0  0  0  0  0  0  0
    4.4228   -1.5557   -1.7394 H   0  0  0  0  0  0  0  0  0  0  0  0
    5.0283   -0.5591   -0.4026 H   0  0  0  0  0  0  0  0  0  0  0  0
    3.5465    0.3688   -2.8298 H   0  0  0  0  0  0  0  0  0  0  0  0
    5.2161    0.7304   -2.3462 H   0  0  0  0  0  0  0  0  0  0  0  0
    0.2380    2.0002    0.0683 H   0  0  0  0  0  0  0  0  0  0  0  0
   -0.5644    3.6374    1.6599 H   0  0  0  0  0  0  0  0  0  0  0  0
   -2.8779    9.8490   -0.8108 H   0  0  0  0  0  0  0  0  0  0  0  0
   -3.1062   11.2064   -2.8118 H   0  0  0  0  0  0  0  0  0  0  0  0
   -0.7321   14.2101   -1.0510 H   0  0  0  0  0  0  0  0  0  0  0  0
   -0.4166   12.8088    0.9084 H   0  0  0  0  0  0  0  0  0  0  0  0
   -3.0992   12.7352    2.0593 H   0  0  0  0  0  0  0  0  0  0  0  0
   -3.6985   13.0144    4.5812 H   0  0  0  0  0  0  0  0  0  0  0  0
   -1.6555    9.4425    4.1104 H   0  0  0  0  0  0  0  0  0  0  0  0
   -2.0789   12.2625    8.3575 H   0  0  0  0  0  0  0  0  0  0  0  0
   -3.3938   13.6702    9.8376 H   0  0  0  0  0  0  0  0  0  0  0  0
   -6.8107   12.9666    7.4761 H   0  0  0  0  0  0  0  0  0  0  0  0
   -5.5267   11.4568    6.0727 H   0  0  0  0  0  0  0  0  0  0  0  0
   -2.6756    5.1586    8.6474 H   0  0  0  0  0  0  0  0  0  0  0  0
   -2.3678    3.9890   10.7559 H   0  0  0  0  0  0  0  0  0  0  0  0
    1.8038    4.4634   10.4134 H   0  0  0  0  0  0  0  0  0  0  0  0
    1.4894    5.7399    8.3733 H   0  0  0  0  0  0  0  0  0  0  0  0
    0.4788    3.9247    6.4355 H   0  0  0  0  0  0  0  0  0  0  0  0
    1.1751    3.7236    4.0031 H   0  0  0  0  0  0  0  0  0  0  0  0
   -0.6381    7.4283    4.5002 H   0  0  0  0  0  0  0  0  0  0  0  0
   -1.8999    7.6709    9.4028 H   0  0  0  0  0  0  0  0  0  0  0  0
   -3.1877    9.8152    8.8631 H   0  0  0  0  0  0  0  0  0  0  0  0
   -0.1047    9.2637   -0.6829 H   0  0  0  0  0  0  0  0  0  0  0  0
    0.8337    6.9160   -0.2878 H   0  0  0  0  0  0  0  0  0  0  0  0
    2.9649    5.8647    1.1460 H   0  0  0  0  0  0  0  0  0  0  0  0
    3.7502    4.2447   -0.4905 H   0  0  0  0  0  0  0  0  0  0  0  0
    5.1438    0.8120    0.5111 H   0  0  0  0  0  0  0  0  0  0  0  0
    6.0938    2.5479    1.8915 H   0  0  0  0  0  0  0  0  0  0  0  0
    9.0361    6.6399    6.6583 H   0  0  0  0  0  0  0  0  0  0  0  0
    6.7803    8.7648    6.3738 H   0  0  0  0  0  0  0  0  0  0  0  0
    8.3093    9.1605    6.0386 H   0  0  0  0  0  0  0  0  0  0  0  0
    8.8470    9.0780    8.6862 H   0  0  0  0  0  0  0  0  0  0  0  0
    6.1586    9.4377    8.6727 H   0  0  0  0  0  0  0  0  0  0  0  0
    8.1506    6.6421    9.0829 H   0  0  0  0  0  0  0  0  0  0  0  0
    6.6080    6.8679    8.6634 H   0  0  0  0  0  0  0  0  0  0  0  0
    2.9255    2.1408    4.6027 H   0  0  0  0  0  0  0  0  0  0  0  0
    1.9082    0.4849    3.1572 H   0  0  0  0  0  0  0  0  0  0  0  0
  1  2  2  0  0  0  0
  2  3  1  0  0  0  0
  2 69  1  0  0  0  0
  3  4  1  0  0  0  0
  4  5  1  0  0  0  0
  4 84  1  0  0  0  0
  4 85  1  0  0  0  0
  5  6  1  0  0  0  0
  5 86  1  0  0  0  0
  5 87  1  0  0  0  0
  6  7  1  0  0  0  0
  7  8  2  0  0  0  0
  7  9  1  0  0  0  0
  9 10  1  0  0  0  0
  9 68  2  0  0  0  0
 10 11  2  0  0  0  0
 10 88  1  0  0  0  0
 11 12  1  0  0  0  0
 11 89  1  0  0  0  0
 12 13  1  0  0  0  0
 12 67  2  0  0  0  0
 13 14  1  0  0  0  0
 13 61  2  0  0  0  0
 14 15  2  0  0  0  0
 14 66  1  0  0  0  0
 15 16  1  0  0  0  0
 16 17  2  0  0  0  0
 16 65  1  0  0  0  0
 17 18  1  0  0  0  0
 17 28  1  0  0  0  0
 18 19  1  0  0  0  0
 18 27  2  0  0  0  0
 19 20  2  0  0  0  0
 19 90  1  0  0  0  0
 20 21  1  0  0  0  0
 20 91  1  0  0  0  0
 21 22  1  0  0  0  0
 21 26  2  0  0  0  0
 22 23  2  0  0  0  0
 22 24  2  0  0  0  0
 22 25  1  0  0  0  0
 26 27  1  0  0  0  0
 26 92  1  0  0  0  0
 27 93  1  0  0  0  0
 28 29  2  0  0  0  0
 28 32  1  0  0  0  0
 29 30  1  0  0  0  0
 29 94  1  0  0  0  0
 30 31  2  0  0  0  0
 30 95  1  0  0  0  0
 31 32  1  0  0  0  0
 31 33  1  0  0  0  0
 32 96  1  0  0  0  0
 33 34  1  0  0  0  0
 33 44  2  0  0  0  0
 34 35  1  0  0  0  0
 34 43  2  0  0  0  0
 35 36  2  0  0  0  0
 35 97  1  0  0  0  0
 36 37  1  0  0  0  0
 36 98  1  0  0  0  0
 37 38  1  0  0  0  0
 37 42  2  0  0  0  0
 38 39  2  0  0  0  0
 38 40  2  0  0  0  0
 38 41  1  0  0  0  0
 42 43  1  0  0  0  0
 42 99  1  0  0  0  0
 43100  1  0  0  0  0
 44 45  1  0  0  0  0
 44 64  1  0  0  0  0
 45 46  2  0  0  0  0
 46 47  1  0  0  0  0
 46 63  1  0  0  0  0
 47 48  1  0  0  0  0
 47 58  2  0  0  0  0
 48 49  1  0  0  0  0
 48 57  2  0  0  0  0
 49 50  2  0  0  0  0
 49101  1  0  0  0  0
 50 51  1  0  0  0  0
 50102  1  0  0  0  0
 51 52  1  0  0  0  0
 51 56  2  0  0  0  0
 52 53  2  0  0  0  0
 52 54  2  0  0  0  0
 52 55  1  0  0  0  0
 56 57  1  0  0  0  0
 56103  1  0  0  0  0
 57104  1  0  0  0  0
 58 59  1  0  0  0  0
 58 62  1  0  0  0  0
 59 60  2  0  0  0  0
 59105  1  0  0  0  0
 60 61  1  0  0  0  0
 60106  1  0  0  0  0
 61 62  1  0  0  0  0
 62107  1  0  0  0  0
 63 64  2  0  0  0  0
 63108  1  0  0  0  0
 64109  1  0  0  0  0
 65 66  2  0  0  0  0
 65110  1  0  0  0  0
 66111  1  0  0  0  0
 67 68  1  0  0  0  0
 67112  1  0  0  0  0
 68113  1  0  0  0  0
 69 70  1  0  0  0  0
 69 83  2  0  0  0  0
 70 71  2  0  0  0  0
 70114  1  0  0  0  0
 71 72  1  0  0  0  0
 71115  1  0  0  0  0
 72 73  1  0  0  0  0
 72 82  2  0  0  0  0
 73 74  3  0  0  0  0
 74 75  1  0  0  0  0
 75 76  3  0  0  0  0
 76 77  1  0  0  0  0
 77 78  1  0  0  0  0
 77 81  1  0  0  0  0
 77116  1  6  0  0  0
 78 79  1  0  0  0  0
 78117  1  0  0  0  0
 78118  1  0  0  0  0
 79 80  1  0  0  0  0
 79 81  1  0  0  0  0
 79119  1  1  0  0  0
 80120  1  0  0  0  0
 81121  1  0  0  0  0
 81122  1  0  0  0  0
 82 83  1  0  0  0  0
 82123  1  0  0  0  0
 83124  1  0  0  0  0
M  CHG  3  25  -1  41  -1  55  -1
M  END
$$$$
