3_3_3006
 OpenBabel04152301373D

139150  0  0  1  0  0  0  0  0999 V2000
    1.3187   -5.6974    0.5015 O   0  0  0  0  0  0  0  0  0  0  0  0
    0.6904   -6.7428    0.3433 C   0  0  0  0  0  0  0  0  0  0  0  0
   -0.8106   -6.7121    0.2412 C   0  0  0  0  0  0  0  0  0  0  0  0
   -1.2678   -6.4371   -1.1719 C   0  0  2  0  0  0  0  0  0  0  0  0
   -2.4101   -5.4142   -1.1879 C   0  0  0  0  0  0  0  0  0  0  0  0
   -2.6505   -5.1254   -2.5867 N   0  0  0  0  0  0  0  0  0  0  0  0
   -2.1234   -4.1289   -3.3496 C   0  0  0  0  0  0  0  0  0  0  0  0
   -2.3942   -4.0362   -4.5517 O   0  0  0  0  0  0  0  0  0  0  0  0
   -1.2392   -3.2225   -2.8891 N   0  0  0  0  0  0  0  0  0  0  0  0
   -0.4349   -2.9839   -1.6948 C   0  0  0  0  0  0  0  0  0  0  0  0
    1.0685   -3.2638   -1.8383 C   0  0  1  0  0  0  0  0  0  0  0  0
    1.5203   -4.2536   -2.9330 C   0  0  0  0  0  0  0  0  0  0  0  0
    2.6046   -3.4558   -3.6794 C   0  0  1  0  0  0  0  0  0  0  0  0
    1.9294   -2.3206   -4.4736 C   0  0  0  0  0  0  0  0  0  0  0  0
    1.5562   -1.3045   -3.3855 C   0  0  0  0  0  0  0  0  0  0  0  0
    1.9641   -2.0272   -2.0986 C   0  0  2  0  0  0  0  0  0  0  0  0
    3.2724   -2.6942   -2.5363 C   0  0  0  0  0  0  0  0  0  0  0  0
   -3.2232   -6.2977   -3.2523 C   0  0  0  0  0  0  0  0  0  0  0  0
   -2.2450   -7.4821   -3.1031 C   0  0  0  0  0  0  0  0  0  0  0  0
   -1.7802   -7.6716   -1.7461 O   0  0  0  0  0  0  0  0  0  0  0  0
    1.3488   -7.9160    0.2501 O   0  0  0  0  0  0  0  0  0  0  0  0
    0.7348   -9.2000    0.0197 C   0  0  0  0  0  0  0  0  0  0  0  0
    0.4859   -9.9508    1.3300 C   0  0  0  0  0  0  0  0  0  0  0  0
   -0.6166   -9.3669    2.0499 O   0  0  0  0  0  0  0  0  0  0  0  0
   -0.2934   -8.4746    3.0205 C   0  0  0  0  0  0  0  0  0  0  0  0
    0.8279   -8.2441    3.4403 O   0  0  0  0  0  0  0  0  0  0  0  0
   -1.4852   -7.6484    3.3563 C   0  0  0  0  0  0  0  0  0  0  0  0
   -1.2705   -6.3226    3.7590 C   0  0  0  0  0  0  0  0  0  0  0  0
   -2.3529   -5.4920    4.0622 C   0  0  0  0  0  0  0  0  0  0  0  0
   -3.6628   -5.9829    3.9803 C   0  0  0  0  0  0  0  0  0  0  0  0
   -4.7768   -5.2028    4.5777 C   0  0  0  0  0  0  0  0  0  0  0  0
   -5.1774   -5.5108    5.9972 C   0  0  0  0  0  0  0  0  0  0  0  0
   -6.0618   -4.9185    6.7572 N   0  0  0  0  0  0  0  0  0  0  0  0
   -6.0243   -5.5927    7.9720 C   0  0  0  0  0  0  0  0  0  0  0  0
   -6.7127   -5.3393    9.1101 C   0  0  0  0  0  0  0  0  0  0  0  0
   -6.4437   -6.2406   10.2836 C   0  0  0  0  0  0  0  0  0  0  0  0
   -5.2291   -6.1674   10.9902 C   0  0  0  0  0  0  0  0  0  0  0  0
   -4.9725   -7.0465   12.0447 C   0  0  0  0  0  0  0  0  0  0  0  0
   -5.9440   -7.9816   12.4141 C   0  0  0  0  0  0  0  0  0  0  0  0
   -5.5842   -9.1176   13.7809 S   0  0  0  0  0  0  0  0  0  0  0  0
   -4.6547  -10.0545   13.1541 O   0  0  0  0  0  0  0  0  0  0  0  0
   -5.0018   -8.2350   14.7884 O   0  0  0  0  0  0  0  0  0  0  0  0
   -6.8914   -9.6723   14.1233 O   0  5  0  0  0  0  0  0  0  0  0  0
   -7.1742   -8.0359   11.7550 C   0  0  0  0  0  0  0  0  0  0  0  0
   -7.4170   -7.1726   10.6839 C   0  0  0  0  0  0  0  0  0  0  0  0
   -7.6897   -4.2958    9.2532 C   0  0  0  0  0  0  0  0  0  0  0  0
   -8.4212   -3.9507   10.3762 C   0  0  0  0  0  0  0  0  0  0  0  0
   -9.3004   -2.9206   10.0243 C   0  0  0  0  0  0  0  0  0  0  0  0
   -9.0744   -2.5872    8.6985 C   0  0  0  0  0  0  0  0  0  0  0  0
   -8.0862   -3.4405    8.2380 N   0  0  0  0  0  0  0  0  0  0  0  0
   -9.7156   -1.5696    7.9049 C   0  0  0  0  0  0  0  0  0  0  0  0
  -10.7496   -0.7029    8.5769 C   0  0  0  0  0  0  0  0  0  0  0  0
  -12.1177   -0.8250    8.2769 C   0  0  0  0  0  0  0  0  0  0  0  0
  -13.0596   -0.0242    8.9311 C   0  0  0  0  0  0  0  0  0  0  0  0
  -12.6377    0.8828    9.9085 C   0  0  0  0  0  0  0  0  0  0  0  0
  -13.8806    1.8840   10.7720 S   0  0  0  0  0  0  0  0  0  0  0  0
  -14.2158    2.8868    9.7650 O   0  0  0  0  0  0  0  0  0  0  0  0
  -14.9312    0.9119   11.0650 O   0  0  0  0  0  0  0  0  0  0  0  0
  -13.1658    2.3896   11.9419 O   0  5  0  0  0  0  0  0  0  0  0  0
  -11.2870    0.9947   10.2429 C   0  0  0  0  0  0  0  0  0  0  0  0
  -10.3464    0.2119    9.5679 C   0  0  0  0  0  0  0  0  0  0  0  0
   -9.4271   -1.3157    6.6039 C   0  0  0  0  0  0  0  0  0  0  0  0
   -8.4890   -1.9305    5.7774 N   0  0  0  0  0  0  0  0  0  0  0  0
   -8.5857   -1.3278    4.6163 C   0  0  0  0  0  0  0  0  0  0  0  0
   -7.7755   -1.5430    3.3610 C   0  0  0  0  0  0  0  0  0  0  0  0
   -8.0203   -0.6936    2.1623 C   0  0  0  0  0  0  0  0  0  0  0  0
   -7.6716    0.6689    2.1706 C   0  0  0  0  0  0  0  0  0  0  0  0
   -7.9490    1.4786    1.0651 C   0  0  0  0  0  0  0  0  0  0  0  0
   -8.5565    0.9212   -0.0633 C   0  0  0  0  0  0  0  0  0  0  0  0
   -8.8736    1.9830   -1.5006 S   0  0  0  0  0  0  0  0  0  0  0  0
  -10.0079    2.7800   -1.0447 O   0  0  0  0  0  0  0  0  0  0  0  0
   -7.6109    2.7031   -1.6451 O   0  0  0  0  0  0  0  0  0  0  0  0
   -9.1658    1.0308   -2.5697 O   0  5  0  0  0  0  0  0  0  0  0  0
   -8.8881   -0.4347   -0.0994 C   0  0  0  0  0  0  0  0  0  0  0  0
   -8.6313   -1.2359    1.0175 C   0  0  0  0  0  0  0  0  0  0  0  0
   -6.8193   -2.4941    3.3348 C   0  0  0  0  0  0  0  0  0  0  0  0
   -5.9351   -2.7876    2.2065 C   0  0  0  0  0  0  0  0  0  0  0  0
   -5.1139   -3.8022    2.5360 C   0  0  0  0  0  0  0  0  0  0  0  0
   -5.4063   -4.2215    3.9053 C   0  0  0  0  0  0  0  0  0  0  0  0
   -6.4287   -3.3920    4.2997 N   0  0  0  0  0  0  0  0  0  0  0  0
   -9.6257   -0.2881    4.5648 C   0  0  0  0  0  0  0  0  0  0  0  0
  -10.0775   -0.2934    5.8117 C   0  0  0  0  0  0  0  0  0  0  0  0
   -5.0642   -6.6658    7.8326 C   0  0  0  0  0  0  0  0  0  0  0  0
   -4.4845   -6.6382    6.6430 C   0  0  0  0  0  0  0  0  0  0  0  0
   -3.8786   -7.2922    3.5182 C   0  0  0  0  0  0  0  0  0  0  0  0
   -2.7944   -8.1249    3.2136 C   0  0  0  0  0  0  0  0  0  0  0  0
   -1.1864   -5.9431    0.8833 H   0  0  0  0  0  0  0  0  0  0  0  0
   -1.1849   -7.6712    0.5327 H   0  0  0  0  0  0  0  0  0  0  0  0
   -0.4361   -6.0565   -1.7271 H   0  0  0  0  0  0  0  0  0  0  0  0
   -2.1233   -4.5251   -0.6663 H   0  0  0  0  0  0  0  0  0  0  0  0
   -3.2869   -5.7903   -0.7036 H   0  0  0  0  0  0  0  0  0  0  0  0
   -1.0924   -2.5117   -3.5542 H   0  0  0  0  0  0  0  0  0  0  0  0
   -0.8128   -3.6096   -0.9134 H   0  0  0  0  0  0  0  0  0  0  0  0
   -0.5188   -1.9369   -1.4907 H   0  0  0  0  0  0  0  0  0  0  0  0
    1.2025   -3.6855   -0.8641 H   0  0  0  0  0  0  0  0  0  0  0  0
    0.7095   -4.5061   -3.5840 H   0  0  0  0  0  0  0  0  0  0  0  0
    1.8701   -5.1873   -2.5447 H   0  0  0  0  0  0  0  0  0  0  0  0
    3.2153   -4.0766   -4.3012 H   0  0  0  0  0  0  0  0  0  0  0  0
    1.0576   -2.6747   -4.9830 H   0  0  0  0  0  0  0  0  0  0  0  0
    2.5594   -1.9085   -5.2340 H   0  0  0  0  0  0  0  0  0  0  0  0
    0.5067   -1.0962   -3.3953 H   0  0  0  0  0  0  0  0  0  0  0  0
    2.0328   -0.3545   -3.5092 H   0  0  0  0  0  0  0  0  0  0  0  0
    1.9561   -1.3613   -1.2611 H   0  0  0  0  0  0  0  0  0  0  0  0
    4.0138   -1.9972   -2.8672 H   0  0  0  0  0  0  0  0  0  0  0  0
    3.8338   -3.2461   -1.8117 H   0  0  0  0  0  0  0  0  0  0  0  0
   -3.3738   -6.0842   -4.2899 H   0  0  0  0  0  0  0  0  0  0  0  0
   -4.1641   -6.5451   -2.8068 H   0  0  0  0  0  0  0  0  0  0  0  0
   -1.3971   -7.3037   -3.7309 H   0  0  0  0  0  0  0  0  0  0  0  0
   -2.7746   -8.3684   -3.3839 H   0  0  0  0  0  0  0  0  0  0  0  0
    1.3805   -9.7872   -0.5993 H   0  0  0  0  0  0  0  0  0  0  0  0
   -0.2094   -9.0379   -0.4568 H   0  0  0  0  0  0  0  0  0  0  0  0
    1.3665   -9.9014    1.9358 H   0  0  0  0  0  0  0  0  0  0  0  0
    0.2479  -10.9690    1.1031 H   0  0  0  0  0  0  0  0  0  0  0  0
   -0.3078   -5.9580    3.8319 H   0  0  0  0  0  0  0  0  0  0  0  0
   -2.1869   -4.5141    4.3473 H   0  0  0  0  0  0  0  0  0  0  0  0
   -4.5243   -5.4606   10.7279 H   0  0  0  0  0  0  0  0  0  0  0  0
   -4.0722   -7.0061   12.5476 H   0  0  0  0  0  0  0  0  0  0  0  0
   -7.8973   -8.7077   12.0565 H   0  0  0  0  0  0  0  0  0  0  0  0
   -8.3179   -7.2194   10.1826 H   0  0  0  0  0  0  0  0  0  0  0  0
   -8.3334   -4.3789   11.3111 H   0  0  0  0  0  0  0  0  0  0  0  0
   -9.9983   -2.4836   10.6463 H   0  0  0  0  0  0  0  0  0  0  0  0
   -7.7195   -3.4396    7.3243 H   0  0  0  0  0  0  0  0  0  0  0  0
  -12.4288   -1.5094    7.5699 H   0  0  0  0  0  0  0  0  0  0  0  0
  -14.0609   -0.1022    8.6937 H   0  0  0  0  0  0  0  0  0  0  0  0
  -10.9859    1.6494   10.9817 H   0  0  0  0  0  0  0  0  0  0  0  0
   -9.3449    0.3056    9.7986 H   0  0  0  0  0  0  0  0  0  0  0  0
   -7.2076    1.0739    2.9987 H   0  0  0  0  0  0  0  0  0  0  0  0
   -7.7067    2.4816    1.0822 H   0  0  0  0  0  0  0  0  0  0  0  0
   -9.3193   -0.8423   -0.9437 H   0  0  0  0  0  0  0  0  0  0  0  0
   -8.8925   -2.2342    1.0016 H   0  0  0  0  0  0  0  0  0  0  0  0
   -5.9402   -2.2941    1.3001 H   0  0  0  0  0  0  0  0  0  0  0  0
   -4.3952   -4.2163    1.9220 H   0  0  0  0  0  0  0  0  0  0  0  0
   -6.8433   -3.4367    5.1915 H   0  0  0  0  0  0  0  0  0  0  0  0
   -9.9253    0.2935    3.7667 H   0  0  0  0  0  0  0  0  0  0  0  0
  -10.8005    0.3493    6.1713 H   0  0  0  0  0  0  0  0  0  0  0  0
   -4.8580   -7.3624    8.5655 H   0  0  0  0  0  0  0  0  0  0  0  0
   -3.7414   -7.2474    6.2666 H   0  0  0  0  0  0  0  0  0  0  0  0
   -4.8424   -7.6426    3.4025 H   0  0  0  0  0  0  0  0  0  0  0  0
   -2.9601   -9.0888    2.8843 H   0  0  0  0  0  0  0  0  0  0  0  0
  1  2  2  0  0  0  0
  2  3  1  0  0  0  0
  2 21  1  0  0  0  0
  3  4  1  0  0  0  0
  3 87  1  0  0  0  0
  3 88  1  0  0  0  0
  4  5  1  0  0  0  0
  4 20  1  0  0  0  0
  4 89  1  6  0  0  0
  5  6  1  0  0  0  0
  5 90  1  0  0  0  0
  5 91  1  0  0  0  0
  6  7  1  0  0  0  0
  6 18  1  0  0  0  0
  7  8  2  0  0  0  0
  7  9  1  0  0  0  0
  9 10  1  0  0  0  0
  9 92  1  0  0  0  0
 10 93  1  0  0  0  0
 10 94  1  0  0  0  0
 11 12  1  0  0  0  0
 11 16  1  0  0  0  0
 11 10  1  0  0  0  0
 11 95  1  1  0  0  0
 12 13  1  0  0  0  0
 12 96  1  0  0  0  0
 12 97  1  0  0  0  0
 13 14  1  0  0  0  0
 13 17  1  0  0  0  0
 13 98  1  6  0  0  0
 14 15  1  0  0  0  0
 14 99  1  0  0  0  0
 14100  1  0  0  0  0
 15 16  1  0  0  0  0
 15101  1  0  0  0  0
 15102  1  0  0  0  0
 16 17  1  0  0  0  0
 16103  1  1  0  0  0
 17104  1  0  0  0  0
 17105  1  0  0  0  0
 18 19  1  0  0  0  0
 18106  1  0  0  0  0
 18107  1  0  0  0  0
 19 20  1  0  0  0  0
 19108  1  0  0  0  0
 19109  1  0  0  0  0
 21 22  1  0  0  0  0
 22 23  1  0  0  0  0
 22110  1  0  0  0  0
 22111  1  0  0  0  0
 23 24  1  0  0  0  0
 23112  1  0  0  0  0
 23113  1  0  0  0  0
 24 25  1  0  0  0  0
 25 26  2  0  0  0  0
 25 27  1  0  0  0  0
 27 28  1  0  0  0  0
 27 86  2  0  0  0  0
 28 29  2  0  0  0  0
 28114  1  0  0  0  0
 29 30  1  0  0  0  0
 29115  1  0  0  0  0
 30 31  1  0  0  0  0
 30 85  2  0  0  0  0
 31 32  1  0  0  0  0
 31 79  2  0  0  0  0
 32 33  2  0  0  0  0
 32 84  1  0  0  0  0
 33 34  1  0  0  0  0
 34 35  2  0  0  0  0
 34 83  1  0  0  0  0
 35 36  1  0  0  0  0
 35 46  1  0  0  0  0
 36 37  1  0  0  0  0
 36 45  2  0  0  0  0
 37 38  2  0  0  0  0
 37116  1  0  0  0  0
 38 39  1  0  0  0  0
 38117  1  0  0  0  0
 39 40  1  0  0  0  0
 39 44  2  0  0  0  0
 40 41  2  0  0  0  0
 40 42  2  0  0  0  0
 40 43  1  0  0  0  0
 44 45  1  0  0  0  0
 44118  1  0  0  0  0
 45119  1  0  0  0  0
 46 47  2  0  0  0  0
 46 50  1  0  0  0  0
 47 48  1  0  0  0  0
 47120  1  0  0  0  0
 48 49  2  0  0  0  0
 48121  1  0  0  0  0
 49 50  1  0  0  0  0
 49 51  1  0  0  0  0
 50122  1  0  0  0  0
 51 52  1  0  0  0  0
 51 62  2  0  0  0  0
 52 53  1  0  0  0  0
 52 61  2  0  0  0  0
 53 54  2  0  0  0  0
 53123  1  0  0  0  0
 54 55  1  0  0  0  0
 54124  1  0  0  0  0
 55 56  1  0  0  0  0
 55 60  2  0  0  0  0
 56 57  2  0  0  0  0
 56 58  2  0  0  0  0
 56 59  1  0  0  0  0
 60 61  1  0  0  0  0
 60125  1  0  0  0  0
 61126  1  0  0  0  0
 62 63  1  0  0  0  0
 62 82  1  0  0  0  0
 63 64  2  0  0  0  0
 64 65  1  0  0  0  0
 64 81  1  0  0  0  0
 65 66  1  0  0  0  0
 65 76  2  0  0  0  0
 66 67  1  0  0  0  0
 66 75  2  0  0  0  0
 67 68  2  0  0  0  0
 67127  1  0  0  0  0
 68 69  1  0  0  0  0
 68128  1  0  0  0  0
 69 70  1  0  0  0  0
 69 74  2  0  0  0  0
 70 71  2  0  0  0  0
 70 72  2  0  0  0  0
 70 73  1  0  0  0  0
 74 75  1  0  0  0  0
 74129  1  0  0  0  0
 75130  1  0  0  0  0
 76 77  1  0  0  0  0
 76 80  1  0  0  0  0
 77 78  2  0  0  0  0
 77131  1  0  0  0  0
 78 79  1  0  0  0  0
 78132  1  0  0  0  0
 79 80  1  0  0  0  0
 80133  1  0  0  0  0
 81 82  2  0  0  0  0
 81134  1  0  0  0  0
 82135  1  0  0  0  0
 83 84  2  0  0  0  0
 83136  1  0  0  0  0
 84137  1  0  0  0  0
 85 86  1  0  0  0  0
 85138  1  0  0  0  0
 86139  1  0  0  0  0
M  CHG  3  43  -1  59  -1  73  -1
M  END
$$$$
