3_4_1405
 OpenBabel04152301373D

133143  0  0  0  0  0  0  0  0999 V2000
    0.9509    0.2615   -1.0882 O   0  0  0  0  0  0  0  0  0  0  0  0
    2.0942    0.1973   -0.6485 C   0  0  0  0  0  0  0  0  0  0  0  0
    3.0528   -0.9148   -1.0338 C   0  0  0  0  0  0  0  0  0  0  0  0
    4.0579   -0.5552   -2.1063 C   0  0  0  0  0  0  0  0  0  0  0  0
    4.9720   -1.5368   -2.5182 C   0  0  0  0  0  0  0  0  0  0  0  0
    5.8957   -1.2777   -3.5311 C   0  0  0  0  0  0  0  0  0  0  0  0
    5.9366   -0.0232   -4.1310 C   0  0  0  0  0  0  0  0  0  0  0  0
    5.0506    0.9691   -3.7221 C   0  0  0  0  0  0  0  0  0  0  0  0
    4.1104    0.7027   -2.7253 C   0  0  0  0  0  0  0  0  0  0  0  0
    2.6811    1.1435    0.1756 N   0  0  0  0  0  0  0  0  0  0  0  0
    2.0317    2.2373    0.7866 C   0  0  0  0  0  0  0  0  0  0  0  0
    2.8393    3.3797    0.9504 C   0  0  0  0  0  0  0  0  0  0  0  0
    2.3286    4.5480    1.5171 C   0  0  0  0  0  0  0  0  0  0  0  0
    3.3234    5.9461    1.6415 Cl  0  0  0  0  0  0  0  0  0  0  0  0
    1.0189    4.5928    1.9719 C   0  0  0  0  0  0  0  0  0  0  0  0
    0.2116    3.4643    1.8347 C   0  0  0  0  0  0  0  0  0  0  0  0
    0.6977    2.2811    1.2353 C   0  0  0  0  0  0  0  0  0  0  0  0
   -0.2728    1.1544    1.2543 C   0  0  0  0  0  0  0  0  0  0  0  0
   -1.4802    1.3384    1.1884 O   0  0  0  0  0  0  0  0  0  0  0  0
    0.3468   -0.0094    1.5755 O   0  0  0  0  0  0  0  0  0  0  0  0
   -0.5231   -1.1283    1.7876 C   0  0  0  0  0  0  0  0  0  0  0  0
   -0.2209   -1.8245    3.1152 C   0  0  0  0  0  0  0  0  0  0  0  0
   -0.2871   -1.0397    4.3046 O   0  0  0  0  0  0  0  0  0  0  0  0
    0.6731   -0.0010    4.4780 C   0  0  0  0  0  0  0  0  0  0  0  0
    2.1385   -0.3919    4.7269 C   0  0  0  0  0  0  0  0  0  0  0  0
    2.7229   -1.2327    3.7176 O   0  0  0  0  0  0  0  0  0  0  0  0
    2.9579   -2.5088    4.1124 C   0  0  0  0  0  0  0  0  0  0  0  0
    2.7164   -3.0046    5.2066 O   0  0  0  0  0  0  0  0  0  0  0  0
    3.4543   -3.3054    2.9805 C   0  0  0  0  0  0  0  0  0  0  0  0
    2.6416   -4.3238    2.4666 C   0  0  0  0  0  0  0  0  0  0  0  0
    3.1277   -5.1677    1.4682 C   0  0  0  0  0  0  0  0  0  0  0  0
    4.4353   -5.0094    0.9921 C   0  0  0  0  0  0  0  0  0  0  0  0
    4.9996   -5.9541   -0.0025 C   0  0  0  0  0  0  0  0  0  0  0  0
    5.9967   -6.9915    0.4305 C   0  0  0  0  0  0  0  0  0  0  0  0
    6.6827   -7.8327   -0.2992 N   0  0  0  0  0  0  0  0  0  0  0  0
    7.4432   -8.5768    0.5954 C   0  0  0  0  0  0  0  0  0  0  0  0
    8.2884   -9.6053    0.3390 C   0  0  0  0  0  0  0  0  0  0  0  0
    8.9840  -10.2382    1.5176 C   0  0  0  0  0  0  0  0  0  0  0  0
    8.2722  -10.9935    2.4682 C   0  0  0  0  0  0  0  0  0  0  0  0
    8.9247  -11.5235    3.5851 C   0  0  0  0  0  0  0  0  0  0  0  0
   10.3012  -11.3315    3.7361 C   0  0  0  0  0  0  0  0  0  0  0  0
   11.1179  -12.0073    5.2080 S   0  0  0  0  0  0  0  0  0  0  0  0
   10.6290  -11.1163    6.2576 O   0  0  0  0  0  0  0  0  0  0  0  0
   10.6081  -13.3751    5.2581 O   0  0  0  0  0  0  0  0  0  0  0  0
   12.5412  -11.8861    4.9025 O   0  5  0  0  0  0  0  0  0  0  0  0
   11.0353  -10.6355    2.7740 C   0  0  0  0  0  0  0  0  0  0  0  0
   10.3732  -10.0806    1.6748 C   0  0  0  0  0  0  0  0  0  0  0  0
    8.5864  -10.0932   -0.9832 C   0  0  0  0  0  0  0  0  0  0  0  0
    9.4130  -11.1411   -1.3495 C   0  0  0  0  0  0  0  0  0  0  0  0
    9.4686  -11.1861   -2.7473 C   0  0  0  0  0  0  0  0  0  0  0  0
    8.6235  -10.2106   -3.2528 C   0  0  0  0  0  0  0  0  0  0  0  0
    8.0856   -9.5522   -2.1588 N   0  0  0  0  0  0  0  0  0  0  0  0
    8.3410   -9.8926   -4.6319 C   0  0  0  0  0  0  0  0  0  0  0  0
    9.0675  -10.6754   -5.6949 C   0  0  0  0  0  0  0  0  0  0  0  0
   10.0767  -10.0804   -6.4725 C   0  0  0  0  0  0  0  0  0  0  0  0
   10.7804  -10.8350   -7.4154 C   0  0  0  0  0  0  0  0  0  0  0  0
   10.4957  -12.1961   -7.5639 C   0  0  0  0  0  0  0  0  0  0  0  0
   11.4737  -13.1659   -8.7447 S   0  0  0  0  0  0  0  0  0  0  0  0
   10.9848  -12.6681  -10.0274 O   0  0  0  0  0  0  0  0  0  0  0  0
   12.8446  -12.7912   -8.4063 O   0  0  0  0  0  0  0  0  0  0  0  0
   11.1181  -14.5494   -8.4370 O   0  5  0  0  0  0  0  0  0  0  0  0
    9.5074  -12.8081   -6.7907 C   0  0  0  0  0  0  0  0  0  0  0  0
    8.7863  -12.0435   -5.8694 C   0  0  0  0  0  0  0  0  0  0  0  0
    7.4486   -8.9570   -5.0423 C   0  0  0  0  0  0  0  0  0  0  0  0
    6.6428   -8.1224   -4.2751 N   0  0  0  0  0  0  0  0  0  0  0  0
    5.9538   -7.4052   -5.1307 C   0  0  0  0  0  0  0  0  0  0  0  0
    4.9001   -6.3676   -4.8574 C   0  0  0  0  0  0  0  0  0  0  0  0
    4.1983   -5.6707   -5.9682 C   0  0  0  0  0  0  0  0  0  0  0  0
    3.2597   -6.3566   -6.7562 C   0  0  0  0  0  0  0  0  0  0  0  0
    2.5689   -5.6902   -7.7719 C   0  0  0  0  0  0  0  0  0  0  0  0
    2.8011   -4.3285   -7.9889 C   0  0  0  0  0  0  0  0  0  0  0  0
    1.8380   -3.4766   -9.2688 S   0  0  0  0  0  0  0  0  0  0  0  0
    2.3730   -4.0641  -10.4931 O   0  0  0  0  0  0  0  0  0  0  0  0
    0.4681   -3.8550   -8.9315 O   0  0  0  0  0  0  0  0  0  0  0  0
    2.1592   -2.0666   -9.0601 O   0  5  0  0  0  0  0  0  0  0  0  0
    3.7270   -3.6288   -7.2136 C   0  0  0  0  0  0  0  0  0  0  0  0
    4.4341   -4.3048   -6.2156 C   0  0  0  0  0  0  0  0  0  0  0  0
    4.5909   -6.0615   -3.5825 C   0  0  0  0  0  0  0  0  0  0  0  0
    3.5890   -5.0835   -3.1672 C   0  0  0  0  0  0  0  0  0  0  0  0
    3.6296   -4.9548   -1.8309 C   0  0  0  0  0  0  0  0  0  0  0  0
    4.6439   -5.8618   -1.2964 C   0  0  0  0  0  0  0  0  0  0  0  0
    5.1187   -6.5229   -2.4006 N   0  0  0  0  0  0  0  0  0  0  0  0
    6.2665   -7.6804   -6.5396 C   0  0  0  0  0  0  0  0  0  0  0  0
    7.1575   -8.6576   -6.4301 C   0  0  0  0  0  0  0  0  0  0  0  0
    7.1633   -8.0564    1.9178 C   0  0  0  0  0  0  0  0  0  0  0  0
    6.2460   -7.1001    1.8759 C   0  0  0  0  0  0  0  0  0  0  0  0
    5.2372   -3.9718    1.5034 C   0  0  0  0  0  0  0  0  0  0  0  0
    4.7510   -3.1204    2.4999 C   0  0  0  0  0  0  0  0  0  0  0  0
    2.4745   -1.7432   -1.3863 H   0  0  0  0  0  0  0  0  0  0  0  0
    3.6219   -1.1346   -0.1547 H   0  0  0  0  0  0  0  0  0  0  0  0
    4.9609   -2.4640   -2.0652 H   0  0  0  0  0  0  0  0  0  0  0  0
    6.5487   -2.0167   -3.8354 H   0  0  0  0  0  0  0  0  0  0  0  0
    6.6223    0.1711   -4.8774 H   0  0  0  0  0  0  0  0  0  0  0  0
    5.0888    1.9042   -4.1569 H   0  0  0  0  0  0  0  0  0  0  0  0
    3.4463    1.4395   -2.4404 H   0  0  0  0  0  0  0  0  0  0  0  0
    3.6444    1.0432    0.3521 H   0  0  0  0  0  0  0  0  0  0  0  0
    3.8251    3.3521    0.6462 H   0  0  0  0  0  0  0  0  0  0  0  0
    0.6464    5.4514    2.4067 H   0  0  0  0  0  0  0  0  0  0  0  0
   -0.7611    3.4940    2.1781 H   0  0  0  0  0  0  0  0  0  0  0  0
   -0.3912   -1.8283    0.9892 H   0  0  0  0  0  0  0  0  0  0  0  0
   -1.5313   -0.7711    1.8159 H   0  0  0  0  0  0  0  0  0  0  0  0
    0.7702   -2.2222    3.0493 H   0  0  0  0  0  0  0  0  0  0  0  0
   -1.0008   -2.5488    3.2249 H   0  0  0  0  0  0  0  0  0  0  0  0
    0.3561    0.5859    5.3147 H   0  0  0  0  0  0  0  0  0  0  0  0
    0.6921    0.4990    3.5322 H   0  0  0  0  0  0  0  0  0  0  0  0
    2.1895   -0.9106    5.6614 H   0  0  0  0  0  0  0  0  0  0  0  0
    2.6973    0.5205    4.7164 H   0  0  0  0  0  0  0  0  0  0  0  0
    1.6828   -4.4498    2.8268 H   0  0  0  0  0  0  0  0  0  0  0  0
    2.5237   -5.9090    1.0801 H   0  0  0  0  0  0  0  0  0  0  0  0
    7.2614  -11.1572    2.3398 H   0  0  0  0  0  0  0  0  0  0  0  0
    8.3936  -12.0532    4.2938 H   0  0  0  0  0  0  0  0  0  0  0  0
   12.0572  -10.5316    2.8733 H   0  0  0  0  0  0  0  0  0  0  0  0
   10.9094   -9.5495    0.9709 H   0  0  0  0  0  0  0  0  0  0  0  0
    9.9036  -11.7791   -0.7035 H   0  0  0  0  0  0  0  0  0  0  0  0
   10.0422  -11.8361   -3.3073 H   0  0  0  0  0  0  0  0  0  0  0  0
    7.4419   -8.8089   -2.2083 H   0  0  0  0  0  0  0  0  0  0  0  0
   10.2991   -9.0806   -6.3463 H   0  0  0  0  0  0  0  0  0  0  0  0
   11.5061  -10.3901   -7.9988 H   0  0  0  0  0  0  0  0  0  0  0  0
    9.3112  -13.8155   -6.8984 H   0  0  0  0  0  0  0  0  0  0  0  0
    8.0399  -12.4866   -5.3112 H   0  0  0  0  0  0  0  0  0  0  0  0
    3.0792   -7.3580   -6.5843 H   0  0  0  0  0  0  0  0  0  0  0  0
    1.8907   -6.2006   -8.3589 H   0  0  0  0  0  0  0  0  0  0  0  0
    3.8878   -2.6224   -7.3757 H   0  0  0  0  0  0  0  0  0  0  0  0
    5.1362   -3.7978   -5.6543 H   0  0  0  0  0  0  0  0  0  0  0  0
    2.9522   -4.5733   -3.7990 H   0  0  0  0  0  0  0  0  0  0  0  0
    3.0401   -4.3185   -1.2718 H   0  0  0  0  0  0  0  0  0  0  0  0
    5.7736   -7.2563   -2.3512 H   0  0  0  0  0  0  0  0  0  0  0  0
    5.8919   -7.2319   -7.3902 H   0  0  0  0  0  0  0  0  0  0  0  0
    7.5888   -9.1432   -7.2321 H   0  0  0  0  0  0  0  0  0  0  0  0
    7.6196   -8.3877    2.7821 H   0  0  0  0  0  0  0  0  0  0  0  0
    5.8194   -6.5713    2.6527 H   0  0  0  0  0  0  0  0  0  0  0  0
    6.1935   -3.8382    1.1391 H   0  0  0  0  0  0  0  0  0  0  0  0
    5.3441   -2.3640    2.8756 H   0  0  0  0  0  0  0  0  0  0  0  0
  1  2  2  0  0  0  0
  2  3  1  0  0  0  0
  2 10  1  0  0  0  0
  3  4  1  0  0  0  0
  3 89  1  0  0  0  0
  3 90  1  0  0  0  0
  4  5  1  0  0  0  0
  4  9  2  0  0  0  0
  5  6  2  0  0  0  0
  5 91  1  0  0  0  0
  6  7  1  0  0  0  0
  6 92  1  0  0  0  0
  7  8  2  0  0  0  0
  7 93  1  0  0  0  0
  8  9  1  0  0  0  0
  8 94  1  0  0  0  0
  9 95  1  0  0  0  0
 10 11  1  0  0  0  0
 10 96  1  0  0  0  0
 11 12  1  0  0  0  0
 11 17  2  0  0  0  0
 12 13  2  0  0  0  0
 12 97  1  0  0  0  0
 13 14  1  0  0  0  0
 13 15  1  0  0  0  0
 15 16  2  0  0  0  0
 15 98  1  0  0  0  0
 16 17  1  0  0  0  0
 16 99  1  0  0  0  0
 17 18  1  0  0  0  0
 18 19  2  0  0  0  0
 18 20  1  0  0  0  0
 20 21  1  0  0  0  0
 21 22  1  0  0  0  0
 21100  1  0  0  0  0
 21101  1  0  0  0  0
 22 23  1  0  0  0  0
 22102  1  0  0  0  0
 22103  1  0  0  0  0
 23 24  1  0  0  0  0
 24 25  1  0  0  0  0
 24104  1  0  0  0  0
 24105  1  0  0  0  0
 25 26  1  0  0  0  0
 25106  1  0  0  0  0
 25107  1  0  0  0  0
 26 27  1  0  0  0  0
 27 28  2  0  0  0  0
 27 29  1  0  0  0  0
 29 30  1  0  0  0  0
 29 88  2  0  0  0  0
 30 31  2  0  0  0  0
 30108  1  0  0  0  0
 31 32  1  0  0  0  0
 31109  1  0  0  0  0
 32 33  1  0  0  0  0
 32 87  2  0  0  0  0
 33 34  1  0  0  0  0
 33 81  2  0  0  0  0
 34 35  2  0  0  0  0
 34 86  1  0  0  0  0
 35 36  1  0  0  0  0
 36 37  2  0  0  0  0
 36 85  1  0  0  0  0
 37 38  1  0  0  0  0
 37 48  1  0  0  0  0
 38 39  1  0  0  0  0
 38 47  2  0  0  0  0
 39 40  2  0  0  0  0
 39110  1  0  0  0  0
 40 41  1  0  0  0  0
 40111  1  0  0  0  0
 41 42  1  0  0  0  0
 41 46  2  0  0  0  0
 42 43  2  0  0  0  0
 42 44  2  0  0  0  0
 42 45  1  0  0  0  0
 46 47  1  0  0  0  0
 46112  1  0  0  0  0
 47113  1  0  0  0  0
 48 49  2  0  0  0  0
 48 52  1  0  0  0  0
 49 50  1  0  0  0  0
 49114  1  0  0  0  0
 50 51  2  0  0  0  0
 50115  1  0  0  0  0
 51 52  1  0  0  0  0
 51 53  1  0  0  0  0
 52116  1  0  0  0  0
 53 54  1  0  0  0  0
 53 64  2  0  0  0  0
 54 55  1  0  0  0  0
 54 63  2  0  0  0  0
 55 56  2  0  0  0  0
 55117  1  0  0  0  0
 56 57  1  0  0  0  0
 56118  1  0  0  0  0
 57 58  1  0  0  0  0
 57 62  2  0  0  0  0
 58 59  2  0  0  0  0
 58 60  2  0  0  0  0
 58 61  1  0  0  0  0
 62 63  1  0  0  0  0
 62119  1  0  0  0  0
 63120  1  0  0  0  0
 64 65  1  0  0  0  0
 64 84  1  0  0  0  0
 65 66  2  0  0  0  0
 66 67  1  0  0  0  0
 66 83  1  0  0  0  0
 67 68  1  0  0  0  0
 67 78  2  0  0  0  0
 68 69  1  0  0  0  0
 68 77  2  0  0  0  0
 69 70  2  0  0  0  0
 69121  1  0  0  0  0
 70 71  1  0  0  0  0
 70122  1  0  0  0  0
 71 72  1  0  0  0  0
 71 76  2  0  0  0  0
 72 73  2  0  0  0  0
 72 74  2  0  0  0  0
 72 75  1  0  0  0  0
 76 77  1  0  0  0  0
 76123  1  0  0  0  0
 77124  1  0  0  0  0
 78 79  1  0  0  0  0
 78 82  1  0  0  0  0
 79 80  2  0  0  0  0
 79125  1  0  0  0  0
 80 81  1  0  0  0  0
 80126  1  0  0  0  0
 81 82  1  0  0  0  0
 82127  1  0  0  0  0
 83 84  2  0  0  0  0
 83128  1  0  0  0  0
 84129  1  0  0  0  0
 85 86  2  0  0  0  0
 85130  1  0  0  0  0
 86131  1  0  0  0  0
 87 88  1  0  0  0  0
 87132  1  0  0  0  0
 88133  1  0  0  0  0
M  CHG  3  45  -1  61  -1  75  -1
M  END
$$$$
