3_4_2287
 OpenBabel04152301363D

140151  0  0  1  0  0  0  0  0999 V2000
   -2.3500    0.6202    0.0172 C   0  0  0  0  0  0  0  0  0  0  0  0
   -0.9046    0.3879    0.2793 C   0  0  0  0  0  0  0  0  0  0  0  0
   -0.3247   -0.7783    0.1274 N   0  0  0  0  0  0  0  0  0  0  0  0
    1.0025   -0.7156    0.5280 C   0  0  0  0  0  0  0  0  0  0  0  0
    1.8096   -1.9755    0.5219 C   0  0  0  0  0  0  0  0  0  0  0  0
    1.3297   -3.1010   -0.1055 C   0  0  0  0  0  0  0  0  0  0  0  0
    2.1435   -4.2324    0.1388 C   0  0  0  0  0  0  0  0  0  0  0  0
    3.2962   -3.9354    0.8427 C   0  0  0  0  0  0  0  0  0  0  0  0
    4.6733   -4.9461    1.4082 S   0  0  0  0  0  0  0  0  0  0  0  0
    5.7855   -4.0288    1.5596 O   0  0  0  0  0  0  0  0  0  0  0  0
    4.1290   -5.6711    2.5332 O   0  0  0  0  0  0  0  0  0  0  0  0
    5.1466   -6.0828    0.2346 N   0  0  0  0  0  0  0  0  0  0  0  0
    4.3815   -7.3444    0.0333 C   0  0  0  0  0  0  0  0  0  0  0  0
    3.4830   -7.3353   -1.2316 C   0  0  0  0  0  0  0  0  0  0  0  0
    3.9907   -6.6238   -2.4293 N   0  3  0  0  0  0  0  0  0  0  0  0
    4.6197   -5.3345   -2.0113 C   0  0  2  0  0  0  0  0  0  0  0  0
    4.9769   -4.3778   -3.1294 C   0  0  0  0  0  0  0  0  0  0  0  0
    4.4414   -3.2758   -3.2160 O   0  0  0  0  0  0  0  0  0  0  0  0
    5.8921   -4.8676   -4.0048 O   0  0  0  0  0  0  0  0  0  0  0  0
    6.1273   -4.0100   -5.1379 C   0  0  0  0  0  0  0  0  0  0  0  0
    5.7913   -4.6813   -6.4720 C   0  0  0  0  0  0  0  0  0  0  0  0
    4.4619   -5.1463   -6.6892 O   0  0  0  0  0  0  0  0  0  0  0  0
    3.9439   -6.1583   -5.8325 C   0  0  0  0  0  0  0  0  0  0  0  0
    4.5770   -7.5588   -5.8764 C   0  0  0  0  0  0  0  0  0  0  0  0
    6.0032   -7.5701   -5.6831 O   0  0  0  0  0  0  0  0  0  0  0  0
    6.7010   -7.9390   -6.7899 C   0  0  0  0  0  0  0  0  0  0  0  0
    6.2400   -8.3218   -7.8531 O   0  0  0  0  0  0  0  0  0  0  0  0
    8.1380   -7.6449   -6.6353 C   0  0  0  0  0  0  0  0  0  0  0  0
    8.7166   -6.7922   -7.5851 C   0  0  0  0  0  0  0  0  0  0  0  0
   10.0965   -6.6279   -7.6270 C   0  0  0  0  0  0  0  0  0  0  0  0
   10.9102   -7.3413   -6.7385 C   0  0  0  0  0  0  0  0  0  0  0  0
   12.3665   -7.3993   -7.0145 C   0  0  0  0  0  0  0  0  0  0  0  0
   12.9104   -8.5760   -7.7824 C   0  0  0  0  0  0  0  0  0  0  0  0
   14.1270   -8.7954   -8.2096 N   0  0  0  0  0  0  0  0  0  0  0  0
   14.0820  -10.0212   -8.8649 C   0  0  0  0  0  0  0  0  0  0  0  0
   15.0755  -10.6748   -9.5132 C   0  0  0  0  0  0  0  0  0  0  0  0
   14.7397  -12.0061  -10.1311 C   0  0  0  0  0  0  0  0  0  0  0  0
   13.9450  -12.0936  -11.2886 C   0  0  0  0  0  0  0  0  0  0  0  0
   13.6286  -13.3400  -11.8367 C   0  0  0  0  0  0  0  0  0  0  0  0
   14.1296  -14.5027  -11.2431 C   0  0  0  0  0  0  0  0  0  0  0  0
   13.7141  -16.1076  -11.9799 S   0  0  0  0  0  0  0  0  0  0  0  0
   12.3185  -16.2695  -11.5795 O   0  0  0  0  0  0  0  0  0  0  0  0
   13.9354  -15.8746  -13.4047 O   0  0  0  0  0  0  0  0  0  0  0  0
   14.6535  -17.0320  -11.3497 O   0  5  0  0  0  0  0  0  0  0  0  0
   14.9516  -14.4332  -10.1165 C   0  0  0  0  0  0  0  0  0  0  0  0
   15.2451  -13.1865   -9.5570 C   0  0  0  0  0  0  0  0  0  0  0  0
   16.4255  -10.1897   -9.6165 C   0  0  0  0  0  0  0  0  0  0  0  0
   17.5050  -10.7751  -10.2546 C   0  0  0  0  0  0  0  0  0  0  0  0
   18.6271   -9.9658  -10.0444 C   0  0  0  0  0  0  0  0  0  0  0  0
   18.2333   -8.8494   -9.3238 C   0  0  0  0  0  0  0  0  0  0  0  0
   16.8828   -9.0038   -9.0624 N   0  0  0  0  0  0  0  0  0  0  0  0
   19.0314   -7.7251   -8.9049 C   0  0  0  0  0  0  0  0  0  0  0  0
   20.4806   -7.7027   -9.3127 C   0  0  0  0  0  0  0  0  0  0  0  0
   21.5063   -7.9072   -8.3732 C   0  0  0  0  0  0  0  0  0  0  0  0
   22.8451   -7.8824   -8.7734 C   0  0  0  0  0  0  0  0  0  0  0  0
   23.1600   -7.6816  -10.1212 C   0  0  0  0  0  0  0  0  0  0  0  0
   24.9033   -7.6784  -10.6223 S   0  0  0  0  0  0  0  0  0  0  0  0
   25.3474   -6.3646  -10.1650 O   0  0  0  0  0  0  0  0  0  0  0  0
   25.4517   -8.8174   -9.8900 O   0  0  0  0  0  0  0  0  0  0  0  0
   24.8464   -7.8477  -12.0725 O   0  5  0  0  0  0  0  0  0  0  0  0
   22.1529   -7.5153  -11.0740 C   0  0  0  0  0  0  0  0  0  0  0  0
   20.8170   -7.5139  -10.6658 C   0  0  0  0  0  0  0  0  0  0  0  0
   18.5683   -6.6656   -8.1954 C   0  0  0  0  0  0  0  0  0  0  0  0
   17.2828   -6.4195   -7.7237 N   0  0  0  0  0  0  0  0  0  0  0  0
   17.3478   -5.2712   -7.0917 C   0  0  0  0  0  0  0  0  0  0  0  0
   16.2455   -4.4990   -6.4157 C   0  0  0  0  0  0  0  0  0  0  0  0
   16.5209   -3.1916   -5.7602 C   0  0  0  0  0  0  0  0  0  0  0  0
   16.8284   -2.0519   -6.5232 C   0  0  0  0  0  0  0  0  0  0  0  0
   17.0952   -0.8310   -5.8955 C   0  0  0  0  0  0  0  0  0  0  0  0
   17.0334   -0.7423   -4.5017 C   0  0  0  0  0  0  0  0  0  0  0  0
   17.3278    0.8638   -3.7099 S   0  0  0  0  0  0  0  0  0  0  0  0
   18.7767    0.9957   -3.8210 O   0  0  0  0  0  0  0  0  0  0  0  0
   16.5427    1.7739   -4.5402 O   0  0  0  0  0  0  0  0  0  0  0  0
   16.8167    0.6735   -2.3542 O   0  5  0  0  0  0  0  0  0  0  0  0
   16.7123   -1.8592   -3.7286 C   0  0  0  0  0  0  0  0  0  0  0  0
   16.4715   -3.0831   -4.3581 C   0  0  0  0  0  0  0  0  0  0  0  0
   14.9969   -5.0058   -6.4041 C   0  0  0  0  0  0  0  0  0  0  0  0
   13.8200   -4.3583   -5.8276 C   0  0  0  0  0  0  0  0  0  0  0  0
   12.7546   -5.1650   -5.9761 C   0  0  0  0  0  0  0  0  0  0  0  0
   13.1739   -6.3783   -6.6766 C   0  0  0  0  0  0  0  0  0  0  0  0
   14.5157   -6.1953   -6.8955 N   0  0  0  0  0  0  0  0  0  0  0  0
   18.6887   -4.6704   -7.0686 C   0  0  0  0  0  0  0  0  0  0  0  0
   19.3850   -5.5400   -7.7882 C   0  0  0  0  0  0  0  0  0  0  0  0
   12.7271  -10.5139   -8.7503 C   0  0  0  0  0  0  0  0  0  0  0  0
   11.9531   -9.6432   -8.1197 C   0  0  0  0  0  0  0  0  0  0  0  0
   10.3209   -8.1318   -5.7344 C   0  0  0  0  0  0  0  0  0  0  0  0
    8.9292   -8.2875   -5.6817 C   0  0  0  0  0  0  0  0  0  0  0  0
    5.7538   -5.5690   -1.0236 C   0  0  0  0  0  0  0  0  0  0  0  0
    3.3132   -2.2621    1.2711 S   0  0  0  0  0  0  0  0  0  0  0  0
    1.4292    0.5310    0.9306 C   0  0  0  0  0  0  0  0  0  0  0  0
    0.1249    1.6512    0.8191 S   0  0  0  0  0  0  0  0  0  0  0  0
   -2.8045   -0.2920   -0.3087 H   0  0  0  0  0  0  0  0  0  0  0  0
   -2.4594    1.3648   -0.7434 H   0  0  0  0  0  0  0  0  0  0  0  0
   -2.8260    0.9549    0.9151 H   0  0  0  0  0  0  0  0  0  0  0  0
    0.4767   -3.1185   -0.6860 H   0  0  0  0  0  0  0  0  0  0  0  0
    1.9010   -5.1845   -0.1769 H   0  0  0  0  0  0  0  0  0  0  0  0
    3.7584   -7.5015    0.8889 H   0  0  0  0  0  0  0  0  0  0  0  0
    5.0991   -8.1270   -0.0991 H   0  0  0  0  0  0  0  0  0  0  0  0
    2.5527   -6.8816   -0.9602 H   0  0  0  0  0  0  0  0  0  0  0  0
    3.4235   -8.3611   -1.5299 H   0  0  0  0  0  0  0  0  0  0  0  0
    3.2167   -6.4341   -3.0660 H   0  0  0  0  0  0  0  0  0  0  0  0
    4.6842   -7.2038   -2.9016 H   0  0  0  0  0  0  0  0  0  0  0  0
    3.8450   -4.8017   -1.5006 H   0  0  0  0  0  0  0  0  0  0  0  0
    7.1603   -3.7310   -5.1465 H   0  0  0  0  0  0  0  0  0  0  0  0
    5.4863   -3.1593   -5.0357 H   0  0  0  0  0  0  0  0  0  0  0  0
    6.4405   -5.5260   -6.5717 H   0  0  0  0  0  0  0  0  0  0  0  0
    5.9143   -3.9007   -7.1935 H   0  0  0  0  0  0  0  0  0  0  0  0
    2.9075   -6.2736   -6.0722 H   0  0  0  0  0  0  0  0  0  0  0  0
    4.1663   -5.8037   -4.8478 H   0  0  0  0  0  0  0  0  0  0  0  0
    4.3647   -7.9928   -6.8311 H   0  0  0  0  0  0  0  0  0  0  0  0
    4.1532   -8.1123   -5.0647 H   0  0  0  0  0  0  0  0  0  0  0  0
    8.1171   -6.2852   -8.2548 H   0  0  0  0  0  0  0  0  0  0  0  0
   10.5200   -5.9818   -8.3112 H   0  0  0  0  0  0  0  0  0  0  0  0
   13.5935  -11.2325  -11.7358 H   0  0  0  0  0  0  0  0  0  0  0  0
   13.0289  -13.4017  -12.6743 H   0  0  0  0  0  0  0  0  0  0  0  0
   15.3389  -15.2947   -9.7007 H   0  0  0  0  0  0  0  0  0  0  0  0
   15.8384  -13.1315   -8.7144 H   0  0  0  0  0  0  0  0  0  0  0  0
   17.4858  -11.6558  -10.7922 H   0  0  0  0  0  0  0  0  0  0  0  0
   19.5854  -10.1663  -10.3707 H   0  0  0  0  0  0  0  0  0  0  0  0
   16.3287   -8.3657   -8.5575 H   0  0  0  0  0  0  0  0  0  0  0  0
   21.2694   -8.0765   -7.3831 H   0  0  0  0  0  0  0  0  0  0  0  0
   23.5970   -8.0115   -8.0784 H   0  0  0  0  0  0  0  0  0  0  0  0
   22.3932   -7.3946  -12.0703 H   0  0  0  0  0  0  0  0  0  0  0  0
   20.0696   -7.3730  -11.3634 H   0  0  0  0  0  0  0  0  0  0  0  0
   16.8575   -2.1164   -7.5528 H   0  0  0  0  0  0  0  0  0  0  0  0
   17.3364   -0.0001   -6.4581 H   0  0  0  0  0  0  0  0  0  0  0  0
   16.6533   -1.7817   -2.7012 H   0  0  0  0  0  0  0  0  0  0  0  0
   16.2551   -3.9162   -3.7888 H   0  0  0  0  0  0  0  0  0  0  0  0
   13.8086   -3.4295   -5.3780 H   0  0  0  0  0  0  0  0  0  0  0  0
   11.7972   -4.9612   -5.6491 H   0  0  0  0  0  0  0  0  0  0  0  0
   15.0805   -6.8540   -7.3607 H   0  0  0  0  0  0  0  0  0  0  0  0
   19.0053   -3.8005   -6.6124 H   0  0  0  0  0  0  0  0  0  0  0  0
   20.3826   -5.4290   -8.0279 H   0  0  0  0  0  0  0  0  0  0  0  0
   12.4052  -11.4250   -9.1126 H   0  0  0  0  0  0  0  0  0  0  0  0
   10.9426   -9.6983   -7.9175 H   0  0  0  0  0  0  0  0  0  0  0  0
   10.9167   -8.5992   -5.0333 H   0  0  0  0  0  0  0  0  0  0  0  0
    8.4953   -8.8692   -4.9480 H   0  0  0  0  0  0  0  0  0  0  0  0
    6.4406   -6.2880   -1.4188 H   0  0  0  0  0  0  0  0  0  0  0  0
    6.2911   -4.6617   -0.8417 H   0  0  0  0  0  0  0  0  0  0  0  0
    2.3837    0.7589    1.2500 H   0  0  0  0  0  0  0  0  0  0  0  0
  1  2  1  0  0  0  0
  1 92  1  0  0  0  0
  1 93  1  0  0  0  0
  1 94  1  0  0  0  0
  2  3  2  0  0  0  0
  2 91  1  0  0  0  0
  3  4  1  0  0  0  0
  4  5  1  0  0  0  0
  4 90  2  0  0  0  0
  5  6  2  0  0  0  0
  5 89  1  0  0  0  0
  6  7  1  0  0  0  0
  6 95  1  0  0  0  0
  7  8  2  0  0  0  0
  7 96  1  0  0  0  0
  8  9  1  0  0  0  0
  8 89  1  0  0  0  0
  9 10  2  0  0  0  0
  9 11  2  0  0  0  0
  9 12  1  0  0  0  0
 12 13  1  0  0  0  0
 12 88  1  0  0  0  0
 13 14  1  0  0  0  0
 13 97  1  0  0  0  0
 13 98  1  0  0  0  0
 14 15  1  0  0  0  0
 14 99  1  0  0  0  0
 14100  1  0  0  0  0
 15 16  1  0  0  0  0
 15101  1  0  0  0  0
 15102  1  0  0  0  0
 16 88  1  0  0  0  0
 16 17  1  0  0  0  0
 16103  1  1  0  0  0
 17 18  2  0  0  0  0
 17 19  1  0  0  0  0
 19 20  1  0  0  0  0
 20 21  1  0  0  0  0
 20104  1  0  0  0  0
 20105  1  0  0  0  0
 21 22  1  0  0  0  0
 21106  1  0  0  0  0
 21107  1  0  0  0  0
 22 23  1  0  0  0  0
 23 24  1  0  0  0  0
 23108  1  0  0  0  0
 23109  1  0  0  0  0
 24 25  1  0  0  0  0
 24110  1  0  0  0  0
 24111  1  0  0  0  0
 25 26  1  0  0  0  0
 26 27  2  0  0  0  0
 26 28  1  0  0  0  0
 28 29  1  0  0  0  0
 28 87  2  0  0  0  0
 29 30  2  0  0  0  0
 29112  1  0  0  0  0
 30 31  1  0  0  0  0
 30113  1  0  0  0  0
 31 32  1  0  0  0  0
 31 86  2  0  0  0  0
 32 33  1  0  0  0  0
 32 80  2  0  0  0  0
 33 34  2  0  0  0  0
 33 85  1  0  0  0  0
 34 35  1  0  0  0  0
 35 36  2  0  0  0  0
 35 84  1  0  0  0  0
 36 37  1  0  0  0  0
 36 47  1  0  0  0  0
 37 38  1  0  0  0  0
 37 46  2  0  0  0  0
 38 39  2  0  0  0  0
 38114  1  0  0  0  0
 39 40  1  0  0  0  0
 39115  1  0  0  0  0
 40 41  1  0  0  0  0
 40 45  2  0  0  0  0
 41 42  2  0  0  0  0
 41 43  2  0  0  0  0
 41 44  1  0  0  0  0
 45 46  1  0  0  0  0
 45116  1  0  0  0  0
 46117  1  0  0  0  0
 47 48  2  0  0  0  0
 47 51  1  0  0  0  0
 48 49  1  0  0  0  0
 48118  1  0  0  0  0
 49 50  2  0  0  0  0
 49119  1  0  0  0  0
 50 51  1  0  0  0  0
 50 52  1  0  0  0  0
 51120  1  0  0  0  0
 52 53  1  0  0  0  0
 52 63  2  0  0  0  0
 53 54  1  0  0  0  0
 53 62  2  0  0  0  0
 54 55  2  0  0  0  0
 54121  1  0  0  0  0
 55 56  1  0  0  0  0
 55122  1  0  0  0  0
 56 57  1  0  0  0  0
 56 61  2  0  0  0  0
 57 58  2  0  0  0  0
 57 59  2  0  0  0  0
 57 60  1  0  0  0  0
 61 62  1  0  0  0  0
 61123  1  0  0  0  0
 62124  1  0  0  0  0
 63 64  1  0  0  0  0
 63 83  1  0  0  0  0
 64 65  2  0  0  0  0
 65 66  1  0  0  0  0
 65 82  1  0  0  0  0
 66 67  1  0  0  0  0
 66 77  2  0  0  0  0
 67 68  1  0  0  0  0
 67 76  2  0  0  0  0
 68 69  2  0  0  0  0
 68125  1  0  0  0  0
 69 70  1  0  0  0  0
 69126  1  0  0  0  0
 70 71  1  0  0  0  0
 70 75  2  0  0  0  0
 71 72  2  0  0  0  0
 71 73  2  0  0  0  0
 71 74  1  0  0  0  0
 75 76  1  0  0  0  0
 75127  1  0  0  0  0
 76128  1  0  0  0  0
 77 78  1  0  0  0  0
 77 81  1  0  0  0  0
 78 79  2  0  0  0  0
 78129  1  0  0  0  0
 79 80  1  0  0  0  0
 79130  1  0  0  0  0
 80 81  1  0  0  0  0
 81131  1  0  0  0  0
 82 83  2  0  0  0  0
 82132  1  0  0  0  0
 83133  1  0  0  0  0
 84 85  2  0  0  0  0
 84134  1  0  0  0  0
 85135  1  0  0  0  0
 86 87  1  0  0  0  0
 86136  1  0  0  0  0
 87137  1  0  0  0  0
 88138  1  0  0  0  0
 88139  1  0  0  0  0
 90 91  1  0  0  0  0
 90140  1  0  0  0  0
M  CHG  4  15   1  44  -1  60  -1  74  -1
M  END
$$$$
