3_4_9396
 OpenBabel04152301363D

142152  0  0  1  0  0  0  0  0999 V2000
   -1.8332   -1.3856   -0.5133 C   0  0  0  0  0  0  0  0  0  0  0  0
   -2.4900   -0.4580    0.5067 C   0  0  2  0  0  0  0  0  0  0  0  0
   -3.7220   -0.0368   -0.1164 O   0  0  0  0  0  0  0  0  0  0  0  0
   -1.6208    0.7643    0.9019 C   0  0  2  0  0  0  0  0  0  0  0  0
   -0.1721    0.6293    1.1996 N   0  0  0  0  0  0  0  0  0  0  0  0
    0.6162    0.1861    2.2008 C   0  0  0  0  0  0  0  0  0  0  0  0
    1.7277    0.7212    2.2561 O   0  0  0  0  0  0  0  0  0  0  0  0
    0.2245   -0.7529    3.0992 N   0  0  0  0  0  0  0  0  0  0  0  0
   -0.8373   -1.7040    2.9013 C   0  0  0  0  0  0  0  0  0  0  0  0
   -0.6298   -3.1246    3.4488 C   0  0  0  0  0  0  0  0  0  0  0  0
    0.3586   -3.3529    4.4811 N   0  3  2  0  0  0  0  0  0  0  0  0
   -0.1382   -4.0274    5.6725 C   0  0  0  0  0  0  0  0  0  0  0  0
    0.9673   -3.7937    6.6797 C   0  0  0  0  0  0  0  0  0  0  0  0
    1.3833   -2.3642    6.3769 C   0  0  0  0  0  0  0  0  0  0  0  0
    1.2530   -2.2495    4.8513 C   0  0  2  0  0  0  0  0  0  0  0  0
    0.8757   -0.8208    4.4098 C   0  0  0  0  0  0  0  0  0  0  0  0
   -2.4282    1.6684    1.8532 C   0  0  0  0  0  0  0  0  0  0  0  0
   -3.6447    1.8083    1.7351 O   0  0  0  0  0  0  0  0  0  0  0  0
   -1.6597    2.3611    2.7306 O   0  0  0  0  0  0  0  0  0  0  0  0
   -2.3263    3.4469    3.3910 C   0  0  0  0  0  0  0  0  0  0  0  0
   -1.7514    4.8004    2.9675 C   0  0  0  0  0  0  0  0  0  0  0  0
   -1.6871    5.0653    1.5672 O   0  0  0  0  0  0  0  0  0  0  0  0
   -0.6195    4.4696    0.8268 C   0  0  0  0  0  0  0  0  0  0  0  0
    0.8022    4.9990    1.0565 C   0  0  0  0  0  0  0  0  0  0  0  0
    1.3002    4.6821    2.3672 O   0  0  0  0  0  0  0  0  0  0  0  0
    1.4743    5.7462    3.1831 C   0  0  0  0  0  0  0  0  0  0  0  0
    1.3059    6.9282    2.8964 O   0  0  0  0  0  0  0  0  0  0  0  0
    1.6916    5.2973    4.5690 C   0  0  0  0  0  0  0  0  0  0  0  0
    0.8581    5.8344    5.5600 C   0  0  0  0  0  0  0  0  0  0  0  0
    1.1001    5.5570    6.9020 C   0  0  0  0  0  0  0  0  0  0  0  0
    2.1926    4.7584    7.2618 C   0  0  0  0  0  0  0  0  0  0  0  0
    2.5946    4.6782    8.6864 C   0  0  0  0  0  0  0  0  0  0  0  0
    3.7315    5.5377    9.1708 C   0  0  0  0  0  0  0  0  0  0  0  0
    4.2571    5.6181   10.3656 N   0  0  0  0  0  0  0  0  0  0  0  0
    5.2817    6.5528   10.2653 C   0  0  0  0  0  0  0  0  0  0  0  0
    6.1132    7.0057   11.2336 C   0  0  0  0  0  0  0  0  0  0  0  0
    7.1603    8.0142   10.8391 C   0  0  0  0  0  0  0  0  0  0  0  0
    6.8164    9.3391   10.5155 C   0  0  0  0  0  0  0  0  0  0  0  0
    7.8059   10.2595   10.1577 C   0  0  0  0  0  0  0  0  0  0  0  0
    9.1475    9.8648   10.1516 C   0  0  0  0  0  0  0  0  0  0  0  0
   10.4128   11.0867    9.7085 S   0  0  0  0  0  0  0  0  0  0  0  0
   10.2007   11.2322    8.2705 O   0  0  0  0  0  0  0  0  0  0  0  0
   10.0383   12.2432   10.5183 O   0  0  0  0  0  0  0  0  0  0  0  0
   11.6672   10.4425   10.0902 O   0  5  0  0  0  0  0  0  0  0  0  0
    9.5112    8.5634   10.5020 C   0  0  0  0  0  0  0  0  0  0  0  0
    8.5164    7.6389   10.8321 C   0  0  0  0  0  0  0  0  0  0  0  0
    6.0784    6.5556   12.6001 C   0  0  0  0  0  0  0  0  0  0  0  0
    6.8665    6.9665   13.6610 C   0  0  0  0  0  0  0  0  0  0  0  0
    6.5222    6.2032   14.7812 C   0  0  0  0  0  0  0  0  0  0  0  0
    5.4740    5.3650   14.4354 C   0  0  0  0  0  0  0  0  0  0  0  0
    5.2168    5.5875   13.0932 N   0  0  0  0  0  0  0  0  0  0  0  0
    4.7645    4.4269   15.2691 C   0  0  0  0  0  0  0  0  0  0  0  0
    5.1711    4.3314   16.7168 C   0  0  0  0  0  0  0  0  0  0  0  0
    5.8418    3.2010   17.2160 C   0  0  0  0  0  0  0  0  0  0  0  0
    6.2316    3.1462   18.5574 C   0  0  0  0  0  0  0  0  0  0  0  0
    5.9788    4.2364   19.3963 C   0  0  0  0  0  0  0  0  0  0  0  0
    6.5314    4.1571   21.1222 S   0  0  0  0  0  0  0  0  0  0  0  0
    5.5759    3.2187   21.7042 O   0  0  0  0  0  0  0  0  0  0  0  0
    7.9009    3.6640   20.9981 O   0  0  0  0  0  0  0  0  0  0  0  0
    6.4123    5.5368   21.5884 O   0  5  0  0  0  0  0  0  0  0  0  0
    5.3418    5.3796   18.9106 C   0  0  0  0  0  0  0  0  0  0  0  0
    4.9273    5.4183   17.5771 C   0  0  0  0  0  0  0  0  0  0  0  0
    3.7351    3.6469   14.8542 C   0  0  0  0  0  0  0  0  0  0  0  0
    3.1463    3.5681   13.5959 N   0  0  0  0  0  0  0  0  0  0  0  0
    2.2002    2.6646   13.6995 C   0  0  0  0  0  0  0  0  0  0  0  0
    1.2195    2.1971   12.6561 C   0  0  0  0  0  0  0  0  0  0  0  0
    0.2136    1.1457   12.9703 C   0  0  0  0  0  0  0  0  0  0  0  0
   -0.8553    1.4073   13.8446 C   0  0  0  0  0  0  0  0  0  0  0  0
   -1.7890    0.4088   14.1397 C   0  0  0  0  0  0  0  0  0  0  0  0
   -1.6692   -0.8484   13.5400 C   0  0  0  0  0  0  0  0  0  0  0  0
   -2.9245   -2.1108   13.8902 S   0  0  0  0  0  0  0  0  0  0  0  0
   -2.5878   -2.5041   15.2543 O   0  0  0  0  0  0  0  0  0  0  0  0
   -4.1715   -1.3663   13.7335 O   0  0  0  0  0  0  0  0  0  0  0  0
   -2.6821   -3.1251   12.8662 O   0  5  0  0  0  0  0  0  0  0  0  0
   -0.6242   -1.1216   12.6563 C   0  0  0  0  0  0  0  0  0  0  0  0
    0.3225   -0.1304   12.3866 C   0  0  0  0  0  0  0  0  0  0  0  0
    1.2730    2.7251   11.4172 C   0  0  0  0  0  0  0  0  0  0  0  0
    0.3884    2.3804   10.3055 C   0  0  0  0  0  0  0  0  0  0  0  0
    0.7849    3.0414    9.2042 C   0  0  0  0  0  0  0  0  0  0  0  0
    1.9319    3.8826    9.5447 C   0  0  0  0  0  0  0  0  0  0  0  0
    2.1333    3.6533   10.8823 N   0  0  0  0  0  0  0  0  0  0  0  0
    2.0999    2.0475   15.0295 C   0  0  0  0  0  0  0  0  0  0  0  0
    3.0294    2.7103   15.7046 C   0  0  0  0  0  0  0  0  0  0  0  0
    5.3203    6.9932    8.8879 C   0  0  0  0  0  0  0  0  0  0  0  0
    4.3578    6.4249    8.1762 C   0  0  0  0  0  0  0  0  0  0  0  0
    2.9818    4.1643    6.2596 C   0  0  0  0  0  0  0  0  0  0  0  0
    2.7321    4.4313    4.9091 C   0  0  0  0  0  0  0  0  0  0  0  0
   -2.4928   -2.1992   -0.7321 H   0  0  0  0  0  0  0  0  0  0  0  0
   -0.9178   -1.7667   -0.1112 H   0  0  0  0  0  0  0  0  0  0  0  0
   -1.6289   -0.8407   -1.4112 H   0  0  0  0  0  0  0  0  0  0  0  0
   -2.6399   -0.9751    1.4314 H   0  0  0  0  0  0  0  0  0  0  0  0
   -3.5234    0.4240   -0.9465 H   0  0  0  0  0  0  0  0  0  0  0  0
   -1.4397    1.2501   -0.0341 H   0  0  0  0  0  0  0  0  0  0  0  0
    0.3710    0.9592    0.4476 H   0  0  0  0  0  0  0  0  0  0  0  0
   -1.0000   -1.7876    1.8471 H   0  0  0  0  0  0  0  0  0  0  0  0
   -1.6604   -1.3136    3.4625 H   0  0  0  0  0  0  0  0  0  0  0  0
   -0.3602   -3.7422    2.6177 H   0  0  0  0  0  0  0  0  0  0  0  0
   -1.5570   -3.3444    3.9355 H   0  0  0  0  0  0  0  0  0  0  0  0
    0.9576   -3.9976    3.9654 H   0  0  0  0  0  0  0  0  0  0  0  0
   -0.2800   -5.0725    5.4922 H   0  0  0  0  0  0  0  0  0  0  0  0
   -1.0902   -3.6632    5.9981 H   0  0  0  0  0  0  0  0  0  0  0  0
    1.7793   -4.4739    6.5288 H   0  0  0  0  0  0  0  0  0  0  0  0
    0.6624   -3.9458    7.6940 H   0  0  0  0  0  0  0  0  0  0  0  0
    2.3927   -2.1891    6.6858 H   0  0  0  0  0  0  0  0  0  0  0  0
    0.7844   -1.6445    6.8948 H   0  0  0  0  0  0  0  0  0  0  0  0
    2.1682   -2.3684    4.3098 H   0  0  0  0  0  0  0  0  0  0  0  0
    0.2089   -0.4089    5.1382 H   0  0  0  0  0  0  0  0  0  0  0  0
    1.7900   -0.2708    4.3293 H   0  0  0  0  0  0  0  0  0  0  0  0
   -2.2087    3.3350    4.4486 H   0  0  0  0  0  0  0  0  0  0  0  0
   -3.3604    3.4215    3.1173 H   0  0  0  0  0  0  0  0  0  0  0  0
   -0.7558    4.8639    3.3544 H   0  0  0  0  0  0  0  0  0  0  0  0
   -2.4331    5.5271    3.3576 H   0  0  0  0  0  0  0  0  0  0  0  0
   -0.8426    4.5982   -0.2118 H   0  0  0  0  0  0  0  0  0  0  0  0
   -0.5864    3.4581    1.1742 H   0  0  0  0  0  0  0  0  0  0  0  0
    0.7959    6.0625    0.9392 H   0  0  0  0  0  0  0  0  0  0  0  0
    1.4446    4.5293    0.3412 H   0  0  0  0  0  0  0  0  0  0  0  0
    0.0635    6.4367    5.2938 H   0  0  0  0  0  0  0  0  0  0  0  0
    0.4762    5.9388    7.6300 H   0  0  0  0  0  0  0  0  0  0  0  0
    5.8277    9.6335   10.5424 H   0  0  0  0  0  0  0  0  0  0  0  0
    7.5478   11.2248    9.8995 H   0  0  0  0  0  0  0  0  0  0  0  0
   10.5053    8.2866   10.5172 H   0  0  0  0  0  0  0  0  0  0  0  0
    8.7793    6.6705   11.0733 H   0  0  0  0  0  0  0  0  0  0  0  0
    7.5839    7.7077   13.6307 H   0  0  0  0  0  0  0  0  0  0  0  0
    6.9724    6.2553   15.7083 H   0  0  0  0  0  0  0  0  0  0  0  0
    4.5244    5.1264   12.5667 H   0  0  0  0  0  0  0  0  0  0  0  0
    6.0474    2.4076   16.5889 H   0  0  0  0  0  0  0  0  0  0  0  0
    6.7033    2.3059   18.9267 H   0  0  0  0  0  0  0  0  0  0  0  0
    5.1787    6.1883   19.5306 H   0  0  0  0  0  0  0  0  0  0  0  0
    4.4371    6.2528   17.2190 H   0  0  0  0  0  0  0  0  0  0  0  0
   -0.9518    2.3419   14.2714 H   0  0  0  0  0  0  0  0  0  0  0  0
   -2.5620    0.5989   14.7964 H   0  0  0  0  0  0  0  0  0  0  0  0
   -0.5515   -2.0474   12.2062 H   0  0  0  0  0  0  0  0  0  0  0  0
    1.1103   -0.3361   11.7525 H   0  0  0  0  0  0  0  0  0  0  0  0
   -0.4132    1.7325   10.3579 H   0  0  0  0  0  0  0  0  0  0  0  0
    0.3508    2.9674    8.2708 H   0  0  0  0  0  0  0  0  0  0  0  0
    2.8283    4.1104   11.4089 H   0  0  0  0  0  0  0  0  0  0  0  0
    1.4713    1.2958   15.3532 H   0  0  0  0  0  0  0  0  0  0  0  0
    3.2252    2.5758   16.7089 H   0  0  0  0  0  0  0  0  0  0  0  0
    6.0080    7.6629    8.5089 H   0  0  0  0  0  0  0  0  0  0  0  0
    4.1115    6.5669    7.1841 H   0  0  0  0  0  0  0  0  0  0  0  0
    3.7500    3.5273    6.5226 H   0  0  0  0  0  0  0  0  0  0  0  0
    3.3096    3.9938    4.1742 H   0  0  0  0  0  0  0  0  0  0  0  0
  1 88  1  0  0  0  0
  1 89  1  0  0  0  0
  1 90  1  0  0  0  0
  2  3  1  0  0  0  0
  2  1  1  0  0  0  0
  2 91  1  1  0  0  0
  3 92  1  0  0  0  0
  4 17  1  0  0  0  0
  4  5  1  0  0  0  0
  4  2  1  0  0  0  0
  4 93  1  6  0  0  0
  5  6  1  0  0  0  0
  5 94  1  0  0  0  0
  6  7  2  0  0  0  0
  6  8  1  0  0  0  0
  8  9  1  0  0  0  0
  8 16  1  0  0  0  0
  9 10  1  0  0  0  0
  9 95  1  0  0  0  0
  9 96  1  0  0  0  0
 10 11  1  0  0  0  0
 10 97  1  0  0  0  0
 10 98  1  0  0  0  0
 11 12  1  0  0  0  0
 11 15  1  0  0  0  0
 11 99  1  6  0  0  0
 12 13  1  0  0  0  0
 12100  1  0  0  0  0
 12101  1  0  0  0  0
 13 14  1  0  0  0  0
 13102  1  0  0  0  0
 13103  1  0  0  0  0
 14 15  1  0  0  0  0
 14104  1  0  0  0  0
 14105  1  0  0  0  0
 15 16  1  0  0  0  0
 15106  1  6  0  0  0
 16107  1  0  0  0  0
 16108  1  0  0  0  0
 17 18  2  0  0  0  0
 17 19  1  0  0  0  0
 19 20  1  0  0  0  0
 20 21  1  0  0  0  0
 20109  1  0  0  0  0
 20110  1  0  0  0  0
 21 22  1  0  0  0  0
 21111  1  0  0  0  0
 21112  1  0  0  0  0
 22 23  1  0  0  0  0
 23 24  1  0  0  0  0
 23113  1  0  0  0  0
 23114  1  0  0  0  0
 24 25  1  0  0  0  0
 24115  1  0  0  0  0
 24116  1  0  0  0  0
 25 26  1  0  0  0  0
 26 27  2  0  0  0  0
 26 28  1  0  0  0  0
 28 29  1  0  0  0  0
 28 87  2  0  0  0  0
 29 30  2  0  0  0  0
 29117  1  0  0  0  0
 30 31  1  0  0  0  0
 30118  1  0  0  0  0
 31 32  1  0  0  0  0
 31 86  2  0  0  0  0
 32 33  1  0  0  0  0
 32 80  2  0  0  0  0
 33 34  2  0  0  0  0
 33 85  1  0  0  0  0
 34 35  1  0  0  0  0
 35 36  2  0  0  0  0
 35 84  1  0  0  0  0
 36 37  1  0  0  0  0
 36 47  1  0  0  0  0
 37 38  1  0  0  0  0
 37 46  2  0  0  0  0
 38 39  2  0  0  0  0
 38119  1  0  0  0  0
 39 40  1  0  0  0  0
 39120  1  0  0  0  0
 40 41  1  0  0  0  0
 40 45  2  0  0  0  0
 41 42  2  0  0  0  0
 41 43  2  0  0  0  0
 41 44  1  0  0  0  0
 45 46  1  0  0  0  0
 45121  1  0  0  0  0
 46122  1  0  0  0  0
 47 48  2  0  0  0  0
 47 51  1  0  0  0  0
 48 49  1  0  0  0  0
 48123  1  0  0  0  0
 49 50  2  0  0  0  0
 49124  1  0  0  0  0
 50 51  1  0  0  0  0
 50 52  1  0  0  0  0
 51125  1  0  0  0  0
 52 53  1  0  0  0  0
 52 63  2  0  0  0  0
 53 54  1  0  0  0  0
 53 62  2  0  0  0  0
 54 55  2  0  0  0  0
 54126  1  0  0  0  0
 55 56  1  0  0  0  0
 55127  1  0  0  0  0
 56 57  1  0  0  0  0
 56 61  2  0  0  0  0
 57 58  2  0  0  0  0
 57 59  2  0  0  0  0
 57 60  1  0  0  0  0
 61 62  1  0  0  0  0
 61128  1  0  0  0  0
 62129  1  0  0  0  0
 63 64  1  0  0  0  0
 63 83  1  0  0  0  0
 64 65  2  0  0  0  0
 65 66  1  0  0  0  0
 65 82  1  0  0  0  0
 66 67  1  0  0  0  0
 66 77  2  0  0  0  0
 67 68  1  0  0  0  0
 67 76  2  0  0  0  0
 68 69  2  0  0  0  0
 68130  1  0  0  0  0
 69 70  1  0  0  0  0
 69131  1  0  0  0  0
 70 71  1  0  0  0  0
 70 75  2  0  0  0  0
 71 72  2  0  0  0  0
 71 73  2  0  0  0  0
 71 74  1  0  0  0  0
 75 76  1  0  0  0  0
 75132  1  0  0  0  0
 76133  1  0  0  0  0
 77 78  1  0  0  0  0
 77 81  1  0  0  0  0
 78 79  2  0  0  0  0
 78134  1  0  0  0  0
 79 80  1  0  0  0  0
 79135  1  0  0  0  0
 80 81  1  0  0  0  0
 81136  1  0  0  0  0
 82 83  2  0  0  0  0
 82137  1  0  0  0  0
 83138  1  0  0  0  0
 84 85  2  0  0  0  0
 84139  1  0  0  0  0
 85140  1  0  0  0  0
 86 87  1  0  0  0  0
 86141  1  0  0  0  0
 87142  1  0  0  0  0
M  CHG  4  11   1  44  -1  60  -1  74  -1
M  END
$$$$
