3_5_2299
 OpenBabel04152301373D

145155  0  0  1  0  0  0  0  0999 V2000
    2.3089    1.8876   -1.4404 C   0  0  0  0  0  0  0  0  0  0  0  0
    1.3782    3.0533   -1.5646 C   0  0  0  0  0  0  0  0  0  0  0  0
    0.1867    2.8609   -0.9379 C   0  0  0  0  0  0  0  0  0  0  0  0
   -0.8728    3.7094   -1.2368 C   0  0  0  0  0  0  0  0  0  0  0  0
   -0.9364    4.7315   -2.2373 C   0  0  0  0  0  0  0  0  0  0  0  0
   -2.2369    5.6147   -2.8657 C   0  0  0  0  0  0  0  0  0  0  0  0
   -2.0785    6.6491   -3.5084 O   0  0  0  0  0  0  0  0  0  0  0  0
   -3.5183    5.1146   -2.5942 O   0  0  0  0  0  0  0  0  0  0  0  0
   -4.9502    5.5624   -2.6706 C   0  0  0  0  0  0  0  0  0  0  0  0
   -5.9971    4.8214   -3.5919 C   0  0  0  0  0  0  0  0  0  0  0  0
   -6.5402    3.5362   -3.2571 O   0  0  0  0  0  0  0  0  0  0  0  0
   -6.0186    2.3452   -3.8545 C   0  0  0  0  0  0  0  0  0  0  0  0
   -5.7422    2.3163   -5.3499 C   0  0  0  0  0  0  0  0  0  0  0  0
   -4.6906    3.2377   -5.6059 O   0  0  0  0  0  0  0  0  0  0  0  0
   -4.4395    3.5368   -6.9617 C   0  0  0  0  0  0  0  0  0  0  0  0
   -3.8543    2.3536   -7.7430 C   0  0  0  0  0  0  0  0  0  0  0  0
   -2.4727    2.0809   -7.3904 O   0  0  0  0  0  0  0  0  0  0  0  0
   -2.1837    0.9547   -6.6426 C   0  0  0  0  0  0  0  0  0  0  0  0
   -1.8717   -0.1020   -7.1596 O   0  0  0  0  0  0  0  0  0  0  0  0
   -2.1019    1.2940   -5.1753 C   0  0  0  0  0  0  0  0  0  0  0  0
   -2.3634    0.4828   -4.0661 C   0  0  0  0  0  0  0  0  0  0  0  0
   -2.7023    1.0338   -2.7496 C   0  0  0  0  0  0  0  0  0  0  0  0
   -2.9261    2.4052   -2.5326 C   0  0  0  0  0  0  0  0  0  0  0  0
   -3.7130    3.1013   -1.1967 C   0  0  0  0  0  0  0  0  0  0  0  0
   -3.3352    4.4384   -0.1013 C   0  0  0  0  0  0  0  0  0  0  0  0
   -3.3920    4.3760    1.2224 N   0  0  0  0  0  0  0  0  0  0  0  0
   -2.9408    5.6453    1.6726 C   0  0  0  0  0  0  0  0  0  0  0  0
   -3.7298    6.5445    2.3555 C   0  0  0  0  0  0  0  0  0  0  0  0
   -3.6960    8.1016    2.2378 C   0  0  0  0  0  0  0  0  0  0  0  0
   -4.6456    8.8695    2.9472 C   0  0  0  0  0  0  0  0  0  0  0  0
   -4.7529   10.2780    2.8142 C   0  0  0  0  0  0  0  0  0  0  0  0
   -3.8909   10.9786    1.9728 C   0  0  0  0  0  0  0  0  0  0  0  0
   -4.0473   12.7805    1.7911 S   0  0  0  0  0  0  0  0  0  0  0  0
   -5.3896   12.9248    1.2332 O   0  0  0  0  0  0  0  0  0  0  0  0
   -3.8808   13.2541    3.1620 O   0  0  0  0  0  0  0  0  0  0  0  0
   -2.9617   13.1390    0.8793 O   0  5  0  0  0  0  0  0  0  0  0  0
   -2.9282   10.2808    1.2677 C   0  0  0  0  0  0  0  0  0  0  0  0
   -2.8519    8.8765    1.3958 C   0  0  0  0  0  0  0  0  0  0  0  0
   -4.7792    5.8050    2.9933 C   0  0  0  0  0  0  0  0  0  0  0  0
   -6.1325    5.6594    2.7816 C   0  0  0  0  0  0  0  0  0  0  0  0
   -6.4852    4.3748    3.3009 C   0  0  0  0  0  0  0  0  0  0  0  0
   -5.3552    3.8029    3.8663 C   0  0  0  0  0  0  0  0  0  0  0  0
   -4.3685    4.7523    3.7808 N   0  0  0  0  0  0  0  0  0  0  0  0
   -5.0298    2.5809    4.5788 C   0  0  0  0  0  0  0  0  0  0  0  0
   -4.4997    2.7206    5.9835 C   0  0  0  0  0  0  0  0  0  0  0  0
   -3.6696    1.7606    6.5765 C   0  0  0  0  0  0  0  0  0  0  0  0
   -3.0589    2.0046    7.8104 C   0  0  0  0  0  0  0  0  0  0  0  0
   -3.2171    3.2434    8.4348 C   0  0  0  0  0  0  0  0  0  0  0  0
   -2.4228    3.5480   10.0275 S   0  0  0  0  0  0  0  0  0  0  0  0
   -3.4255    3.0312   10.9551 O   0  0  0  0  0  0  0  0  0  0  0  0
   -1.1914    2.7669    9.9352 O   0  0  0  0  0  0  0  0  0  0  0  0
   -2.2357    4.9961   10.0457 O   0  5  0  0  0  0  0  0  0  0  0  0
   -3.9668    4.2474    7.8383 C   0  0  0  0  0  0  0  0  0  0  0  0
   -4.6326    3.9673    6.6480 C   0  0  0  0  0  0  0  0  0  0  0  0
   -5.1585    1.3974    3.9157 C   0  0  0  0  0  0  0  0  0  0  0  0
   -5.1967    1.3061    2.5565 N   0  0  0  0  0  0  0  0  0  0  0  0
   -5.4520    0.0752    2.1915 C   0  0  0  0  0  0  0  0  0  0  0  0
   -5.7290   -0.3123    0.7501 C   0  0  0  0  0  0  0  0  0  0  0  0
   -5.1743   -1.4194   -0.0969 C   0  0  0  0  0  0  0  0  0  0  0  0
   -6.0729   -1.9294   -1.0692 C   0  0  0  0  0  0  0  0  0  0  0  0
   -5.6222   -2.4780   -2.2731 C   0  0  0  0  0  0  0  0  0  0  0  0
   -4.2561   -2.5959   -2.5020 C   0  0  0  0  0  0  0  0  0  0  0  0
   -3.7374   -3.0246   -4.1985 S   0  0  0  0  0  0  0  0  0  0  0  0
   -4.3672   -4.3237   -4.4057 O   0  0  0  0  0  0  0  0  0  0  0  0
   -4.3151   -1.9184   -4.9621 O   0  0  0  0  0  0  0  0  0  0  0  0
   -2.2805   -3.0356   -4.1093 O   0  5  0  0  0  0  0  0  0  0  0  0
   -3.3404   -2.2417   -1.5021 C   0  0  0  0  0  0  0  0  0  0  0  0
   -3.8001   -1.6470   -0.2993 C   0  0  0  0  0  0  0  0  0  0  0  0
   -6.0779    0.7894    0.0247 C   0  0  0  0  0  0  0  0  0  0  0  0
   -6.6173    2.0282    0.5543 C   0  0  0  0  0  0  0  0  0  0  0  0
   -5.8027    3.0193    0.1607 C   0  0  0  0  0  0  0  0  0  0  0  0
   -4.8255    2.4769   -0.7705 C   0  0  0  0  0  0  0  0  0  0  0  0
   -5.3279    1.2265   -1.0494 N   0  0  0  0  0  0  0  0  0  0  0  0
   -5.5215   -0.8222    3.3425 C   0  0  0  0  0  0  0  0  0  0  0  0
   -5.3163    0.0290    4.3677 C   0  0  0  0  0  0  0  0  0  0  0  0
   -1.9517    6.0311    0.7526 C   0  0  0  0  0  0  0  0  0  0  0  0
   -2.6272    5.7618   -0.3582 C   0  0  0  0  0  0  0  0  0  0  0  0
   -2.5634    3.0687   -3.7344 C   0  0  0  0  0  0  0  0  0  0  0  0
   -1.9394    2.6057   -4.8941 C   0  0  0  0  0  0  0  0  0  0  0  0
    0.3206    5.0312   -2.6967 C   0  0  0  0  0  0  0  0  0  0  0  0
    1.4669    4.2509   -2.3050 C   0  0  0  0  0  0  0  0  0  0  0  0
    2.9658    5.1880   -2.4565 S   0  0  0  0  0  0  0  0  0  0  0  0
    3.3889    5.0512   -3.8329 O   0  0  0  0  0  0  0  0  0  0  0  0
    2.6820    6.4859   -1.8788 O   0  0  0  0  0  0  0  0  0  0  0  0
    4.1113    4.4585   -1.4494 N   0  0  0  0  0  0  0  0  0  0  0  0
    5.0631    3.5778   -2.1289 C   0  0  0  0  0  0  0  0  0  0  0  0
    3.9206    4.4999    0.0365 C   0  0  1  0  0  0  0  0  0  0  0  0
    4.6558    3.4110    0.8265 C   0  0  0  0  0  0  0  0  0  0  0  0
    4.4666    3.7366    2.2988 C   0  0  0  0  0  0  0  0  0  0  0  0
    4.7456    5.5202    2.3854 S   0  0  0  0  0  0  0  0  0  0  0  0
    4.4109    5.8295    0.6198 C   0  0  0  0  0  0  0  0  0  0  0  0
    1.8863    1.1630   -0.7761 H   0  0  0  0  0  0  0  0  0  0  0  0
    3.2488    2.2213   -1.0530 H   0  0  0  0  0  0  0  0  0  0  0  0
    2.4569    1.4452   -2.4033 H   0  0  0  0  0  0  0  0  0  0  0  0
    0.0712    2.0982   -0.2524 H   0  0  0  0  0  0  0  0  0  0  0  0
   -1.7226    3.5870   -0.6641 H   0  0  0  0  0  0  0  0  0  0  0  0
   -4.9310    6.5820   -2.9946 H   0  0  0  0  0  0  0  0  0  0  0  0
   -5.3128    5.3441   -1.6879 H   0  0  0  0  0  0  0  0  0  0  0  0
   -5.5257    4.7063   -4.5455 H   0  0  0  0  0  0  0  0  0  0  0  0
   -6.8557    5.4538   -3.5037 H   0  0  0  0  0  0  0  0  0  0  0  0
   -6.7200    1.5628   -3.6525 H   0  0  0  0  0  0  0  0  0  0  0  0
   -5.0466    2.2499   -3.4175 H   0  0  0  0  0  0  0  0  0  0  0  0
   -6.6201    2.6041   -5.8897 H   0  0  0  0  0  0  0  0  0  0  0  0
   -5.4662    1.3314   -5.6640 H   0  0  0  0  0  0  0  0  0  0  0  0
   -3.7466    4.3508   -7.0077 H   0  0  0  0  0  0  0  0  0  0  0  0
   -5.3784    3.7823   -7.4124 H   0  0  0  0  0  0  0  0  0  0  0  0
   -3.9039    2.5752   -8.7886 H   0  0  0  0  0  0  0  0  0  0  0  0
   -4.4294    1.4857   -7.4960 H   0  0  0  0  0  0  0  0  0  0  0  0
   -2.3161   -0.5420   -4.1782 H   0  0  0  0  0  0  0  0  0  0  0  0
   -2.7798    0.3877   -1.9486 H   0  0  0  0  0  0  0  0  0  0  0  0
   -5.2901    8.3845    3.5910 H   0  0  0  0  0  0  0  0  0  0  0  0
   -5.4758   10.7882    3.3453 H   0  0  0  0  0  0  0  0  0  0  0  0
   -2.2696   10.7827    0.6518 H   0  0  0  0  0  0  0  0  0  0  0  0
   -2.1365    8.3800    0.8419 H   0  0  0  0  0  0  0  0  0  0  0  0
   -6.7659    6.3419    2.3366 H   0  0  0  0  0  0  0  0  0  0  0  0
   -7.4228    3.9454    3.2616 H   0  0  0  0  0  0  0  0  0  0  0  0
   -3.4900    4.6899    4.2207 H   0  0  0  0  0  0  0  0  0  0  0  0
   -3.5067    0.8617    6.0965 H   0  0  0  0  0  0  0  0  0  0  0  0
   -2.4912    1.2691    8.2596 H   0  0  0  0  0  0  0  0  0  0  0  0
   -4.0296    5.1833    8.2686 H   0  0  0  0  0  0  0  0  0  0  0  0
   -5.2428    4.6901    6.2355 H   0  0  0  0  0  0  0  0  0  0  0  0
   -7.0872   -1.8943   -0.8824 H   0  0  0  0  0  0  0  0  0  0  0  0
   -6.2982   -2.7930   -2.9864 H   0  0  0  0  0  0  0  0  0  0  0  0
   -2.3323   -2.4134   -1.6408 H   0  0  0  0  0  0  0  0  0  0  0  0
   -3.1228   -1.3795    0.4320 H   0  0  0  0  0  0  0  0  0  0  0  0
   -7.4696    2.1284    1.1275 H   0  0  0  0  0  0  0  0  0  0  0  0
   -5.8600    4.0029    0.4676 H   0  0  0  0  0  0  0  0  0  0  0  0
   -5.1767    0.7236   -1.8821 H   0  0  0  0  0  0  0  0  0  0  0  0
   -5.6849   -1.8409    3.3648 H   0  0  0  0  0  0  0  0  0  0  0  0
   -5.2763   -0.2596    5.3577 H   0  0  0  0  0  0  0  0  0  0  0  0
   -1.0006    6.4055    0.8951 H   0  0  0  0  0  0  0  0  0  0  0  0
   -2.6647    6.3315   -1.2179 H   0  0  0  0  0  0  0  0  0  0  0  0
   -2.8040    4.0721   -3.7540 H   0  0  0  0  0  0  0  0  0  0  0  0
   -1.3857    3.2294   -5.5019 H   0  0  0  0  0  0  0  0  0  0  0  0
    0.4480    5.8315   -3.3357 H   0  0  0  0  0  0  0  0  0  0  0  0
    5.0071    3.7393   -3.1852 H   0  0  0  0  0  0  0  0  0  0  0  0
    4.8237    2.5580   -1.9108 H   0  0  0  0  0  0  0  0  0  0  0  0
    6.0541    3.7924   -1.7873 H   0  0  0  0  0  0  0  0  0  0  0  0
    2.8664    4.3523    0.1452 H   0  0  0  0  0  0  0  0  0  0  0  0
    5.6967    3.4149    0.5788 H   0  0  0  0  0  0  0  0  0  0  0  0
    4.2701    2.4403    0.5943 H   0  0  0  0  0  0  0  0  0  0  0  0
    5.1779    3.2099    2.9001 H   0  0  0  0  0  0  0  0  0  0  0  0
    3.5030    3.4503    2.6653 H   0  0  0  0  0  0  0  0  0  0  0  0
    3.6578    6.5819    0.5116 H   0  0  0  0  0  0  0  0  0  0  0  0
    5.2865    6.1777    0.1128 H   0  0  0  0  0  0  0  0  0  0  0  0
  1  2  1  0  0  0  0
  1 92  1  0  0  0  0
  1 93  1  0  0  0  0
  1 94  1  0  0  0  0
  2  3  1  0  0  0  0
  2 81  2  0  0  0  0
  3  4  2  0  0  0  0
  3 95  1  0  0  0  0
  4  5  1  0  0  0  0
  4 96  1  0  0  0  0
  5  6  1  0  0  0  0
  5 80  2  0  0  0  0
  6  7  2  0  0  0  0
  6  8  1  0  0  0  0
  8  9  1  0  0  0  0
  9 10  1  0  0  0  0
  9 97  1  0  0  0  0
  9 98  1  0  0  0  0
 10 11  1  0  0  0  0
 10 99  1  0  0  0  0
 10100  1  0  0  0  0
 11 12  1  0  0  0  0
 12 13  1  0  0  0  0
 12101  1  0  0  0  0
 12102  1  0  0  0  0
 13 14  1  0  0  0  0
 13103  1  0  0  0  0
 13104  1  0  0  0  0
 14 15  1  0  0  0  0
 15 16  1  0  0  0  0
 15105  1  0  0  0  0
 15106  1  0  0  0  0
 16 17  1  0  0  0  0
 16107  1  0  0  0  0
 16108  1  0  0  0  0
 17 18  1  0  0  0  0
 18 19  2  0  0  0  0
 18 20  1  0  0  0  0
 20 21  1  0  0  0  0
 20 79  2  0  0  0  0
 21 22  2  0  0  0  0
 21109  1  0  0  0  0
 22 23  1  0  0  0  0
 22110  1  0  0  0  0
 23 24  1  0  0  0  0
 23 78  2  0  0  0  0
 24 25  1  0  0  0  0
 24 72  2  0  0  0  0
 25 26  2  0  0  0  0
 25 77  1  0  0  0  0
 26 27  1  0  0  0  0
 27 28  2  0  0  0  0
 27 76  1  0  0  0  0
 28 29  1  0  0  0  0
 28 39  1  0  0  0  0
 29 30  1  0  0  0  0
 29 38  2  0  0  0  0
 30 31  2  0  0  0  0
 30111  1  0  0  0  0
 31 32  1  0  0  0  0
 31112  1  0  0  0  0
 32 33  1  0  0  0  0
 32 37  2  0  0  0  0
 33 34  2  0  0  0  0
 33 35  2  0  0  0  0
 33 36  1  0  0  0  0
 37 38  1  0  0  0  0
 37113  1  0  0  0  0
 38114  1  0  0  0  0
 39 40  2  0  0  0  0
 39 43  1  0  0  0  0
 40 41  1  0  0  0  0
 40115  1  0  0  0  0
 41 42  2  0  0  0  0
 41116  1  0  0  0  0
 42 43  1  0  0  0  0
 42 44  1  0  0  0  0
 43117  1  0  0  0  0
 44 45  1  0  0  0  0
 44 55  2  0  0  0  0
 45 46  1  0  0  0  0
 45 54  2  0  0  0  0
 46 47  2  0  0  0  0
 46118  1  0  0  0  0
 47 48  1  0  0  0  0
 47119  1  0  0  0  0
 48 49  1  0  0  0  0
 48 53  2  0  0  0  0
 49 50  2  0  0  0  0
 49 51  2  0  0  0  0
 49 52  1  0  0  0  0
 53 54  1  0  0  0  0
 53120  1  0  0  0  0
 54121  1  0  0  0  0
 55 56  1  0  0  0  0
 55 75  1  0  0  0  0
 56 57  2  0  0  0  0
 57 58  1  0  0  0  0
 57 74  1  0  0  0  0
 58 59  1  0  0  0  0
 58 69  2  0  0  0  0
 59 60  1  0  0  0  0
 59 68  2  0  0  0  0
 60 61  2  0  0  0  0
 60122  1  0  0  0  0
 61 62  1  0  0  0  0
 61123  1  0  0  0  0
 62 63  1  0  0  0  0
 62 67  2  0  0  0  0
 63 64  2  0  0  0  0
 63 65  2  0  0  0  0
 63 66  1  0  0  0  0
 67 68  1  0  0  0  0
 67124  1  0  0  0  0
 68125  1  0  0  0  0
 69 70  1  0  0  0  0
 69 73  1  0  0  0  0
 70 71  2  0  0  0  0
 70126  1  0  0  0  0
 71 72  1  0  0  0  0
 71127  1  0  0  0  0
 72 73  1  0  0  0  0
 73128  1  0  0  0  0
 74 75  2  0  0  0  0
 74129  1  0  0  0  0
 75130  1  0  0  0  0
 76 77  2  0  0  0  0
 76131  1  0  0  0  0
 77132  1  0  0  0  0
 78 79  1  0  0  0  0
 78133  1  0  0  0  0
 79134  1  0  0  0  0
 80 81  1  0  0  0  0
 80135  1  0  0  0  0
 81 82  1  0  0  0  0
 82 83  2  0  0  0  0
 82 84  2  0  0  0  0
 82 85  1  0  0  0  0
 85 86  1  0  0  0  0
 86136  1  0  0  0  0
 86137  1  0  0  0  0
 86138  1  0  0  0  0
 87 88  1  0  0  0  0
 87 91  1  0  0  0  0
 87 85  1  0  0  0  0
 87139  1  1  0  0  0
 88 89  1  0  0  0  0
 88140  1  0  0  0  0
 88141  1  0  0  0  0
 89 90  1  0  0  0  0
 89142  1  0  0  0  0
 89143  1  0  0  0  0
 90 91  1  0  0  0  0
 91144  1  0  0  0  0
 91145  1  0  0  0  0
M  CHG  3  36  -1  52  -1  66  -1
M  END
$$$$
