3_5_8490
 OpenBabel04152301373D

148159  0  0  1  0  0  0  0  0999 V2000
    1.1707    1.8391    1.3828 C   0  0  0  0  0  0  0  0  0  0  0  0
    0.3353    0.5954    1.7919 C   0  0  2  0  0  0  0  0  0  0  0  0
    1.2124   -0.6085    1.3726 C   0  0  0  0  0  0  0  0  0  0  0  0
    2.2427   -0.8975    1.9775 O   0  0  0  0  0  0  0  0  0  0  0  0
    0.8629   -1.1660    0.1887 O   0  0  0  0  0  0  0  0  0  0  0  0
    1.8384   -2.0495   -0.3997 C   0  0  0  0  0  0  0  0  0  0  0  0
    1.6679   -2.1488   -1.9203 C   0  0  0  0  0  0  0  0  0  0  0  0
    1.9105   -0.9793   -2.7057 O   0  0  0  0  0  0  0  0  0  0  0  0
    1.4376    0.2707   -2.2178 C   0  0  0  0  0  0  0  0  0  0  0  0
   -0.0659    0.4000   -1.9374 C   0  0  0  0  0  0  0  0  0  0  0  0
   -0.8414   -0.7615   -2.1146 O   0  0  0  0  0  0  0  0  0  0  0  0
   -1.2732   -1.1118   -3.4175 C   0  0  0  0  0  0  0  0  0  0  0  0
   -0.8164   -0.4292   -4.7172 C   0  0  0  0  0  0  0  0  0  0  0  0
   -0.2794    0.8868   -4.6170 O   0  0  0  0  0  0  0  0  0  0  0  0
   -1.1313    1.9329   -4.7049 C   0  0  0  0  0  0  0  0  0  0  0  0
   -2.3301    1.9189   -4.8775 O   0  0  0  0  0  0  0  0  0  0  0  0
   -0.3005    3.1328   -4.5268 C   0  0  0  0  0  0  0  0  0  0  0  0
   -0.2042    3.7640   -3.2787 C   0  0  0  0  0  0  0  0  0  0  0  0
    0.6511    4.8539   -3.1240 C   0  0  0  0  0  0  0  0  0  0  0  0
    1.3715    5.3253   -4.2280 C   0  0  0  0  0  0  0  0  0  0  0  0
    2.1439    6.5812   -4.1625 C   0  0  0  0  0  0  0  0  0  0  0  0
    1.5152    7.8249   -4.7168 C   0  0  0  0  0  0  0  0  0  0  0  0
    2.0557    8.9887   -4.9539 N   0  0  0  0  0  0  0  0  0  0  0  0
    1.0436    9.7636   -5.5070 C   0  0  0  0  0  0  0  0  0  0  0  0
    1.1034   11.0506   -5.9200 C   0  0  0  0  0  0  0  0  0  0  0  0
   -0.1423   11.6500   -6.5143 C   0  0  0  0  0  0  0  0  0  0  0  0
   -1.2635   11.9444   -5.7176 C   0  0  0  0  0  0  0  0  0  0  0  0
   -2.4130   12.4958   -6.2902 C   0  0  0  0  0  0  0  0  0  0  0  0
   -2.4339   12.7821   -7.6587 C   0  0  0  0  0  0  0  0  0  0  0  0
   -3.9287   13.5240   -8.3695 S   0  0  0  0  0  0  0  0  0  0  0  0
   -4.8598   12.3984   -8.3554 O   0  0  0  0  0  0  0  0  0  0  0  0
   -4.2306   14.5997   -7.4286 O   0  0  0  0  0  0  0  0  0  0  0  0
   -3.5022   13.9622   -9.6962 O   0  5  0  0  0  0  0  0  0  0  0  0
   -1.3193   12.5266   -8.4598 C   0  0  0  0  0  0  0  0  0  0  0  0
   -0.1817   11.9500   -7.8882 C   0  0  0  0  0  0  0  0  0  0  0  0
    2.2960   11.8511   -5.8538 C   0  0  0  0  0  0  0  0  0  0  0  0
    2.4678   13.1729   -6.2219 C   0  0  0  0  0  0  0  0  0  0  0  0
    3.8143   13.5028   -6.0364 C   0  0  0  0  0  0  0  0  0  0  0  0
    4.4668   12.4062   -5.4934 C   0  0  0  0  0  0  0  0  0  0  0  0
    3.5249   11.3979   -5.3952 N   0  0  0  0  0  0  0  0  0  0  0  0
    5.8491   12.2922   -5.1000 C   0  0  0  0  0  0  0  0  0  0  0  0
    6.7165   13.5119   -5.2595 C   0  0  0  0  0  0  0  0  0  0  0  0
    7.7086   13.5797   -6.2528 C   0  0  0  0  0  0  0  0  0  0  0  0
    8.4806   14.7351   -6.3987 C   0  0  0  0  0  0  0  0  0  0  0  0
    8.2404   15.8365   -5.5704 C   0  0  0  0  0  0  0  0  0  0  0  0
    9.2249   17.3405   -5.8097 S   0  0  0  0  0  0  0  0  0  0  0  0
   10.5146   16.9519   -5.2461 O   0  0  0  0  0  0  0  0  0  0  0  0
    9.1988   17.5137   -7.2601 O   0  0  0  0  0  0  0  0  0  0  0  0
    8.4951   18.3563   -5.0541 O   0  5  0  0  0  0  0  0  0  0  0  0
    7.2391   15.7969   -4.5985 C   0  0  0  0  0  0  0  0  0  0  0  0
    6.4897   14.6302   -4.4360 C   0  0  0  0  0  0  0  0  0  0  0  0
    6.4232   11.1863   -4.5637 C   0  0  0  0  0  0  0  0  0  0  0  0
    5.8507    9.9539   -4.2673 N   0  0  0  0  0  0  0  0  0  0  0  0
    6.8186    9.2201   -3.7686 C   0  0  0  0  0  0  0  0  0  0  0  0
    6.7631    7.8076   -3.2473 C   0  0  0  0  0  0  0  0  0  0  0  0
    7.9845    7.1309   -2.7323 C   0  0  0  0  0  0  0  0  0  0  0  0
    8.5660    7.5404   -1.5199 C   0  0  0  0  0  0  0  0  0  0  0  0
    9.7202    6.9146   -1.0396 C   0  0  0  0  0  0  0  0  0  0  0  0
   10.2835    5.8577   -1.7599 C   0  0  0  0  0  0  0  0  0  0  0  0
   11.7543    5.0311   -1.0917 S   0  0  0  0  0  0  0  0  0  0  0  0
   12.7952    6.0264   -1.3275 O   0  0  0  0  0  0  0  0  0  0  0  0
   11.3876    4.8169    0.3060 O   0  0  0  0  0  0  0  0  0  0  0  0
   11.8568    3.8144   -1.8944 O   0  5  0  0  0  0  0  0  0  0  0  0
    9.7089    5.4222   -2.9553 C   0  0  0  0  0  0  0  0  0  0  0  0
    8.5707    6.0692   -3.4462 C   0  0  0  0  0  0  0  0  0  0  0  0
    5.5847    7.1553   -3.2664 C   0  0  0  0  0  0  0  0  0  0  0  0
    5.3638    5.7758   -2.8399 C   0  0  0  0  0  0  0  0  0  0  0  0
    4.0972    5.4264   -3.1248 C   0  0  0  0  0  0  0  0  0  0  0  0
    3.4093    6.5772   -3.7107 C   0  0  0  0  0  0  0  0  0  0  0  0
    4.3517    7.5720   -3.7078 N   0  0  0  0  0  0  0  0  0  0  0  0
    8.1234    9.8930   -3.7224 C   0  0  0  0  0  0  0  0  0  0  0  0
    7.8183   11.0999   -4.1799 C   0  0  0  0  0  0  0  0  0  0  0  0
   -0.1386    8.9343   -5.5833 C   0  0  0  0  0  0  0  0  0  0  0  0
    0.0873    7.7347   -5.0691 C   0  0  0  0  0  0  0  0  0  0  0  0
    1.2681    4.6794   -5.4722 C   0  0  0  0  0  0  0  0  0  0  0  0
    0.4324    3.5812   -5.6235 C   0  0  0  0  0  0  0  0  0  0  0  0
   -1.0794    0.7197    1.3562 N   0  0  0  0  0  0  0  0  0  0  0  0
   -1.7927    1.8752    1.5466 C   0  0  0  0  0  0  0  0  0  0  0  0
   -1.3689    2.9261    2.0081 O   0  0  0  0  0  0  0  0  0  0  0  0
   -3.2440    1.6735    1.2302 C   0  0  0  0  0  0  0  0  0  0  0  0
   -3.3688    0.1694    1.0644 C   0  0  1  0  0  0  0  0  0  0  0  0
   -4.0770   -0.3453   -0.1263 N   0  0  0  0  0  0  0  0  0  0  0  0
   -3.9125    0.2492   -1.3665 C   0  0  0  0  0  0  0  0  0  0  0  0
   -3.1977    1.2144   -1.5998 O   0  0  0  0  0  0  0  0  0  0  0  0
   -4.7056   -0.4666   -2.4154 C   0  0  0  0  0  0  0  0  0  0  0  0
   -4.7081   -0.0681   -3.6952 C   0  0  0  0  0  0  0  0  0  0  0  0
   -5.2576   -0.7430   -4.8804 C   0  0  0  0  0  0  0  0  0  0  0  0
   -4.4395   -1.5860   -5.6476 C   0  0  0  0  0  0  0  0  0  0  0  0
   -4.8738   -2.0833   -6.8787 C   0  0  0  0  0  0  0  0  0  0  0  0
   -6.1452   -1.7630   -7.3429 C   0  0  0  0  0  0  0  0  0  0  0  0
   -6.9824   -0.9588   -6.5693 C   0  0  0  0  0  0  0  0  0  0  0  0
   -6.5404   -0.4468   -5.3436 C   0  0  0  0  0  0  0  0  0  0  0  0
   -5.4573   -1.8440   -1.7395 S   0  0  0  0  0  0  0  0  0  0  0  0
   -4.8649   -1.4842   -0.1162 C   0  0  0  0  0  0  0  0  0  0  0  0
   -5.3021   -2.4323    1.1878 S   0  0  0  0  0  0  0  0  0  0  0  0
   -1.9378   -0.3403    1.2321 C   0  0  0  0  0  0  0  0  0  0  0  0
   -1.6501   -1.5242    1.3411 O   0  0  0  0  0  0  0  0  0  0  0  0
    0.6343    2.7289    1.6386 H   0  0  0  0  0  0  0  0  0  0  0  0
    1.3463    1.8194    0.3275 H   0  0  0  0  0  0  0  0  0  0  0  0
    2.1070    1.8258    1.9005 H   0  0  0  0  0  0  0  0  0  0  0  0
    0.1431    0.4611    2.8359 H   0  0  0  0  0  0  0  0  0  0  0  0
    1.7252   -3.0244    0.0265 H   0  0  0  0  0  0  0  0  0  0  0  0
    2.8119   -1.6540   -0.1979 H   0  0  0  0  0  0  0  0  0  0  0  0
    0.6591   -2.4526   -2.1071 H   0  0  0  0  0  0  0  0  0  0  0  0
    2.4279   -2.8365   -2.2276 H   0  0  0  0  0  0  0  0  0  0  0  0
    1.6934    1.0150   -2.9427 H   0  0  0  0  0  0  0  0  0  0  0  0
    1.9036    0.3834   -1.2612 H   0  0  0  0  0  0  0  0  0  0  0  0
   -0.4546    1.1529   -2.5908 H   0  0  0  0  0  0  0  0  0  0  0  0
   -0.1400    0.6330   -0.8957 H   0  0  0  0  0  0  0  0  0  0  0  0
   -2.3380   -1.0082   -3.4013 H   0  0  0  0  0  0  0  0  0  0  0  0
   -0.7979   -2.0643   -3.5257 H   0  0  0  0  0  0  0  0  0  0  0  0
   -1.6641   -0.3805   -5.3683 H   0  0  0  0  0  0  0  0  0  0  0  0
   -0.0027   -1.0290   -5.0680 H   0  0  0  0  0  0  0  0  0  0  0  0
   -0.7626    3.4242   -2.4801 H   0  0  0  0  0  0  0  0  0  0  0  0
    0.7524    5.3094   -2.2035 H   0  0  0  0  0  0  0  0  0  0  0  0
   -1.2371   11.7521   -4.7040 H   0  0  0  0  0  0  0  0  0  0  0  0
   -3.2415   12.6905   -5.7065 H   0  0  0  0  0  0  0  0  0  0  0  0
   -1.3353   12.7613   -9.4646 H   0  0  0  0  0  0  0  0  0  0  0  0
    0.6378   11.7422   -8.4800 H   0  0  0  0  0  0  0  0  0  0  0  0
    1.7313   13.8053   -6.5722 H   0  0  0  0  0  0  0  0  0  0  0  0
    4.2493   14.4102   -6.2653 H   0  0  0  0  0  0  0  0  0  0  0  0
    3.7004   10.4925   -5.0508 H   0  0  0  0  0  0  0  0  0  0  0  0
    7.8674   12.7731   -6.8767 H   0  0  0  0  0  0  0  0  0  0  0  0
    9.2238   14.7757   -7.1135 H   0  0  0  0  0  0  0  0  0  0  0  0
    7.0547   16.6216   -4.0062 H   0  0  0  0  0  0  0  0  0  0  0  0
    5.7625   14.5875   -3.7050 H   0  0  0  0  0  0  0  0  0  0  0  0
    8.1377    8.3088   -0.9803 H   0  0  0  0  0  0  0  0  0  0  0  0
   10.1537    7.2313   -0.1582 H   0  0  0  0  0  0  0  0  0  0  0  0
   10.1206    4.6296   -3.4722 H   0  0  0  0  0  0  0  0  0  0  0  0
    8.1563    5.7651   -4.3411 H   0  0  0  0  0  0  0  0  0  0  0  0
    6.0668    5.1674   -2.3920 H   0  0  0  0  0  0  0  0  0  0  0  0
    3.6785    4.4981   -2.9576 H   0  0  0  0  0  0  0  0  0  0  0  0
    4.1638    8.4951   -3.9940 H   0  0  0  0  0  0  0  0  0  0  0  0
    9.0368    9.5239   -3.4150 H   0  0  0  0  0  0  0  0  0  0  0  0
    8.4901   11.8799   -4.2534 H   0  0  0  0  0  0  0  0  0  0  0  0
   -1.0395    9.2372   -5.9854 H   0  0  0  0  0  0  0  0  0  0  0  0
   -0.5653    6.9446   -4.9472 H   0  0  0  0  0  0  0  0  0  0  0  0
    1.8157    5.0230   -6.2766 H   0  0  0  0  0  0  0  0  0  0  0  0
    0.3552    3.1039   -6.5352 H   0  0  0  0  0  0  0  0  0  0  0  0
   -3.5120    2.1808    0.3270 H   0  0  0  0  0  0  0  0  0  0  0  0
   -3.8921    2.0631    1.9872 H   0  0  0  0  0  0  0  0  0  0  0  0
   -4.0440   -0.2172    1.7989 H   0  0  0  0  0  0  0  0  0  0  0  0
   -4.2597    0.8439   -3.8746 H   0  0  0  0  0  0  0  0  0  0  0  0
   -3.5032   -1.8424   -5.2973 H   0  0  0  0  0  0  0  0  0  0  0  0
   -4.2536   -2.6861   -7.4417 H   0  0  0  0  0  0  0  0  0  0  0  0
   -6.4680   -2.1189   -8.2562 H   0  0  0  0  0  0  0  0  0  0  0  0
   -7.9341   -0.7398   -6.9029 H   0  0  0  0  0  0  0  0  0  0  0  0
   -7.1651    0.1515   -4.7808 H   0  0  0  0  0  0  0  0  0  0  0  0
  1 98  1  0  0  0  0
  1 99  1  0  0  0  0
  1100  1  0  0  0  0
  2 77  1  0  0  0  0
  2  3  1  0  0  0  0
  2  1  1  0  0  0  0
  2101  1  1  0  0  0
  3  4  2  0  0  0  0
  3  5  1  0  0  0  0
  5  6  1  0  0  0  0
  6  7  1  0  0  0  0
  6102  1  0  0  0  0
  6103  1  0  0  0  0
  7  8  1  0  0  0  0
  7104  1  0  0  0  0
  7105  1  0  0  0  0
  8  9  1  0  0  0  0
  9 10  1  0  0  0  0
  9106  1  0  0  0  0
  9107  1  0  0  0  0
 10 11  1  0  0  0  0
 10108  1  0  0  0  0
 10109  1  0  0  0  0
 11 12  1  0  0  0  0
 12 13  1  0  0  0  0
 12110  1  0  0  0  0
 12111  1  0  0  0  0
 13 14  1  0  0  0  0
 13112  1  0  0  0  0
 13113  1  0  0  0  0
 14 15  1  0  0  0  0
 15 16  2  0  0  0  0
 15 17  1  0  0  0  0
 17 18  1  0  0  0  0
 17 76  2  0  0  0  0
 18 19  2  0  0  0  0
 18114  1  0  0  0  0
 19 20  1  0  0  0  0
 19115  1  0  0  0  0
 20 21  1  0  0  0  0
 20 75  2  0  0  0  0
 21 22  1  0  0  0  0
 21 69  2  0  0  0  0
 22 23  2  0  0  0  0
 22 74  1  0  0  0  0
 23 24  1  0  0  0  0
 24 25  2  0  0  0  0
 24 73  1  0  0  0  0
 25 26  1  0  0  0  0
 25 36  1  0  0  0  0
 26 27  1  0  0  0  0
 26 35  2  0  0  0  0
 27 28  2  0  0  0  0
 27116  1  0  0  0  0
 28 29  1  0  0  0  0
 28117  1  0  0  0  0
 29 30  1  0  0  0  0
 29 34  2  0  0  0  0
 30 31  2  0  0  0  0
 30 32  2  0  0  0  0
 30 33  1  0  0  0  0
 34 35  1  0  0  0  0
 34118  1  0  0  0  0
 35119  1  0  0  0  0
 36 37  2  0  0  0  0
 36 40  1  0  0  0  0
 37 38  1  0  0  0  0
 37120  1  0  0  0  0
 38 39  2  0  0  0  0
 38121  1  0  0  0  0
 39 40  1  0  0  0  0
 39 41  1  0  0  0  0
 40122  1  0  0  0  0
 41 42  1  0  0  0  0
 41 52  2  0  0  0  0
 42 43  1  0  0  0  0
 42 51  2  0  0  0  0
 43 44  2  0  0  0  0
 43123  1  0  0  0  0
 44 45  1  0  0  0  0
 44124  1  0  0  0  0
 45 46  1  0  0  0  0
 45 50  2  0  0  0  0
 46 47  2  0  0  0  0
 46 48  2  0  0  0  0
 46 49  1  0  0  0  0
 50 51  1  0  0  0  0
 50125  1  0  0  0  0
 51126  1  0  0  0  0
 52 53  1  0  0  0  0
 52 72  1  0  0  0  0
 53 54  2  0  0  0  0
 54 55  1  0  0  0  0
 54 71  1  0  0  0  0
 55 56  1  0  0  0  0
 55 66  2  0  0  0  0
 56 57  1  0  0  0  0
 56 65  2  0  0  0  0
 57 58  2  0  0  0  0
 57127  1  0  0  0  0
 58 59  1  0  0  0  0
 58128  1  0  0  0  0
 59 60  1  0  0  0  0
 59 64  2  0  0  0  0
 60 61  2  0  0  0  0
 60 62  2  0  0  0  0
 60 63  1  0  0  0  0
 64 65  1  0  0  0  0
 64129  1  0  0  0  0
 65130  1  0  0  0  0
 66 67  1  0  0  0  0
 66 70  1  0  0  0  0
 67 68  2  0  0  0  0
 67131  1  0  0  0  0
 68 69  1  0  0  0  0
 68132  1  0  0  0  0
 69 70  1  0  0  0  0
 70133  1  0  0  0  0
 71 72  2  0  0  0  0
 71134  1  0  0  0  0
 72135  1  0  0  0  0
 73 74  2  0  0  0  0
 73136  1  0  0  0  0
 74137  1  0  0  0  0
 75 76  1  0  0  0  0
 75138  1  0  0  0  0
 76139  1  0  0  0  0
 77 78  1  0  0  0  0
 77 96  1  0  0  0  0
 78 79  2  0  0  0  0
 78 80  1  0  0  0  0
 80 81  1  0  0  0  0
 80140  1  0  0  0  0
 80141  1  0  0  0  0
 81 96  1  0  0  0  0
 81 82  1  0  0  0  0
 81142  1  1  0  0  0
 82 83  1  0  0  0  0
 82 94  1  0  0  0  0
 83 84  2  0  0  0  0
 83 85  1  0  0  0  0
 85 86  2  0  0  0  0
 85 93  1  0  0  0  0
 86 87  1  0  0  0  0
 86143  1  0  0  0  0
 87 88  1  0  0  0  0
 87 92  2  0  0  0  0
 88 89  2  0  0  0  0
 88144  1  0  0  0  0
 89 90  1  0  0  0  0
 89145  1  0  0  0  0
 90 91  2  0  0  0  0
 90146  1  0  0  0  0
 91 92  1  0  0  0  0
 91147  1  0  0  0  0
 92148  1  0  0  0  0
 93 94  1  0  0  0  0
 94 95  2  0  0  0  0
 96 97  2  0  0  0  0
M  CHG  3  33  -1  49  -1  63  -1
M  END
$$$$
