4_0_8402
 OpenBabel04152301373D

135144  0  0  1  0  0  0  0  0999 V2000
    1.5050    0.0631    0.0603 N   0  3  0  0  0  0  0  0  0  0  0  0
    0.7686   -0.7634   -0.9004 C   0  0  0  0  0  0  0  0  0  0  0  0
    0.9383   -2.2740   -0.6821 C   0  0  1  0  0  0  0  0  0  0  0  0
    0.5211   -2.8614    0.6819 C   0  0  0  0  0  0  0  0  0  0  0  0
   -0.9387   -2.9021    1.0602 C   0  0  0  0  0  0  0  0  0  0  0  0
   -1.6267   -4.1270    1.0641 C   0  0  0  0  0  0  0  0  0  0  0  0
   -2.9850   -4.1827    1.3880 C   0  0  0  0  0  0  0  0  0  0  0  0
   -3.6649   -3.0127    1.7145 C   0  0  0  0  0  0  0  0  0  0  0  0
   -5.5138   -3.0774    2.0989 Br  0  0  0  0  0  0  0  0  0  0  0  0
   -2.9933   -1.7931    1.7439 C   0  0  0  0  0  0  0  0  0  0  0  0
   -1.6312   -1.7406    1.4324 C   0  0  0  0  0  0  0  0  0  0  0  0
    0.5094   -3.1150   -1.8889 C   0  0  0  0  0  0  0  0  0  0  0  0
    1.3227   -3.8904   -2.4064 O   0  0  0  0  0  0  0  0  0  0  0  0
   -0.7271   -3.0661   -2.4499 N   0  0  0  0  0  0  0  0  0  0  0  0
   -1.9514   -2.4635   -1.9699 C   0  0  0  0  0  0  0  0  0  0  0  0
   -2.8041   -1.8418   -3.0686 C   0  0  0  0  0  0  0  0  0  0  0  0
   -3.6148   -2.8345   -3.9056 C   0  0  0  0  0  0  0  0  0  0  0  0
   -4.4938   -3.8216   -3.1278 C   0  0  0  0  0  0  0  0  0  0  0  0
   -5.4023   -3.2271   -2.0460 C   0  0  0  0  0  0  0  0  0  0  0  0
   -6.3760   -2.1434   -2.5014 C   0  0  0  0  0  0  0  0  0  0  0  0
   -7.2677   -2.5982   -3.5507 N   0  0  0  0  0  0  0  0  0  0  0  0
   -8.6313   -2.5101   -3.6633 C   0  0  0  0  0  0  0  0  0  0  0  0
   -9.1864   -3.1040   -4.5873 O   0  0  0  0  0  0  0  0  0  0  0  0
   -9.4471   -1.7376   -2.6945 C   0  0  0  0  0  0  0  0  0  0  0  0
  -10.6970   -2.2513   -2.3321 C   0  0  0  0  0  0  0  0  0  0  0  0
  -11.5151   -1.5489   -1.4434 C   0  0  0  0  0  0  0  0  0  0  0  0
  -11.0819   -0.3390   -0.8777 C   0  0  0  0  0  0  0  0  0  0  0  0
  -11.9368    0.3794    0.1051 C   0  0  0  0  0  0  0  0  0  0  0  0
  -12.5385    1.7184   -0.2307 C   0  0  0  0  0  0  0  0  0  0  0  0
  -13.3154    2.4799    0.4980 N   0  0  0  0  0  0  0  0  0  0  0  0
  -13.5727    3.6098   -0.2699 C   0  0  0  0  0  0  0  0  0  0  0  0
  -14.3799    4.6622    0.0099 C   0  0  0  0  0  0  0  0  0  0  0  0
  -14.5057    5.7393   -1.0330 C   0  0  0  0  0  0  0  0  0  0  0  0
  -15.2171    5.5209   -2.2240 C   0  0  0  0  0  0  0  0  0  0  0  0
  -15.7515    4.3165   -2.4807 F   0  0  0  0  0  0  0  0  0  0  0  0
  -15.3588    6.5200   -3.1812 C   0  0  0  0  0  0  0  0  0  0  0  0
  -14.7990    7.7751   -2.9395 C   0  0  0  0  0  0  0  0  0  0  0  0
  -15.0032    9.0666   -4.1848 S   0  0  0  0  0  0  0  0  0  0  0  0
  -14.0704    8.6234   -5.2177 O   0  0  0  0  0  0  0  0  0  0  0  0
  -16.4201    8.9537   -4.5232 O   0  0  0  0  0  0  0  0  0  0  0  0
  -14.6261   10.2839   -3.4788 O   0  5  0  0  0  0  0  0  0  0  0  0
  -14.1052    8.0363   -1.7581 C   0  0  0  0  0  0  0  0  0  0  0  0
  -13.9549    7.0138   -0.8245 C   0  0  0  0  0  0  0  0  0  0  0  0
  -13.2655    7.2774    0.2967 F   0  0  0  0  0  0  0  0  0  0  0  0
  -15.1367    4.8037    1.2278 C   0  0  0  0  0  0  0  0  0  0  0  0
  -16.0030    5.8209    1.5919 C   0  0  0  0  0  0  0  0  0  0  0  0
  -16.4932    5.5438    2.8734 C   0  0  0  0  0  0  0  0  0  0  0  0
  -15.9613    4.3355    3.2924 C   0  0  0  0  0  0  0  0  0  0  0  0
  -15.1236    3.8984    2.2787 N   0  0  0  0  0  0  0  0  0  0  0  0
  -16.2038    3.6281    4.5241 C   0  0  0  0  0  0  0  0  0  0  0  0
  -17.1742    4.2252    5.5045 C   0  0  0  0  0  0  0  0  0  0  0  0
  -16.7393    4.8108    6.7038 C   0  0  0  0  0  0  0  0  0  0  0  0
  -15.4326    4.8300    7.0111 F   0  0  0  0  0  0  0  0  0  0  0  0
  -17.6397    5.3467    7.6186 C   0  0  0  0  0  0  0  0  0  0  0  0
  -19.0036    5.3217    7.3217 C   0  0  0  0  0  0  0  0  0  0  0  0
  -20.1644    6.0246    8.5125 S   0  0  0  0  0  0  0  0  0  0  0  0
  -20.2258    4.9701    9.5191 O   0  0  0  0  0  0  0  0  0  0  0  0
  -19.4912    7.2534    8.9222 O   0  0  0  0  0  0  0  0  0  0  0  0
  -21.3801    6.2163    7.7272 O   0  5  0  0  0  0  0  0  0  0  0  0
  -19.4683    4.7800    6.1236 C   0  0  0  0  0  0  0  0  0  0  0  0
  -18.5518    4.2273    5.2342 C   0  0  0  0  0  0  0  0  0  0  0  0
  -19.0188    3.6901    4.0961 F   0  0  0  0  0  0  0  0  0  0  0  0
  -15.6318    2.4465    4.8641 C   0  0  0  0  0  0  0  0  0  0  0  0
  -14.7185    1.6782    4.1510 N   0  0  0  0  0  0  0  0  0  0  0  0
  -14.4493    0.6445    4.9123 C   0  0  0  0  0  0  0  0  0  0  0  0
  -13.5400   -0.5212    4.6354 C   0  0  0  0  0  0  0  0  0  0  0  0
  -13.3386   -1.5868    5.6522 C   0  0  0  0  0  0  0  0  0  0  0  0
  -14.3612   -2.4937    5.9660 C   0  0  0  0  0  0  0  0  0  0  0  0
  -15.5490   -2.4049    5.3481 F   0  0  0  0  0  0  0  0  0  0  0  0
  -14.1896   -3.4793    6.9326 C   0  0  0  0  0  0  0  0  0  0  0  0
  -12.9605   -3.5782    7.5872 C   0  0  0  0  0  0  0  0  0  0  0  0
  -12.7303   -4.8819    8.8157 S   0  0  0  0  0  0  0  0  0  0  0  0
  -13.4440   -4.3324    9.9623 O   0  0  0  0  0  0  0  0  0  0  0  0
  -13.3523   -6.0324    8.1674 O   0  0  0  0  0  0  0  0  0  0  0  0
  -11.2787   -4.9592    8.9513 O   0  5  0  0  0  0  0  0  0  0  0  0
  -11.9122   -2.7108    7.2820 C   0  0  0  0  0  0  0  0  0  0  0  0
  -12.1164   -1.7181    6.3293 C   0  0  0  0  0  0  0  0  0  0  0  0
  -11.1005   -0.8864    6.0510 F   0  0  0  0  0  0  0  0  0  0  0  0
  -12.9171   -0.6023    3.4437 C   0  0  0  0  0  0  0  0  0  0  0  0
  -12.0432   -1.6926    3.0217 C   0  0  0  0  0  0  0  0  0  0  0  0
  -11.5913   -1.4385    1.7830 C   0  0  0  0  0  0  0  0  0  0  0  0
  -12.1625   -0.1739    1.3135 C   0  0  0  0  0  0  0  0  0  0  0  0
  -12.9298    0.2541    2.3680 N   0  0  0  0  0  0  0  0  0  0  0  0
  -15.1517    0.6475    6.2029 C   0  0  0  0  0  0  0  0  0  0  0  0
  -15.8875    1.7461    6.1059 C   0  0  0  0  0  0  0  0  0  0  0  0
  -12.8230    3.4607   -1.4991 C   0  0  0  0  0  0  0  0  0  0  0  0
  -12.2104    2.2857   -1.5480 C   0  0  0  0  0  0  0  0  0  0  0  0
   -9.8331    0.1754   -1.2552 C   0  0  0  0  0  0  0  0  0  0  0  0
   -9.0413   -0.4974   -2.1912 C   0  0  0  0  0  0  0  0  0  0  0  0
    1.3449    1.0490   -0.1464 H   0  0  0  0  0  0  0  0  0  0  0  0
    2.5019   -0.1414   -0.0092 H   0  0  0  0  0  0  0  0  0  0  0  0
    1.1807   -0.1432    1.0051 H   0  0  0  0  0  0  0  0  0  0  0  0
    1.1142   -0.5245   -1.8845 H   0  0  0  0  0  0  0  0  0  0  0  0
   -0.2701   -0.5453   -0.7649 H   0  0  0  0  0  0  0  0  0  0  0  0
    2.0022   -2.3609   -0.6088 H   0  0  0  0  0  0  0  0  0  0  0  0
    1.0211   -2.2871    1.4336 H   0  0  0  0  0  0  0  0  0  0  0  0
    0.7878   -3.8945    0.6017 H   0  0  0  0  0  0  0  0  0  0  0  0
   -1.1233   -4.9956    0.8250 H   0  0  0  0  0  0  0  0  0  0  0  0
   -3.4818   -5.0872    1.3851 H   0  0  0  0  0  0  0  0  0  0  0  0
   -3.4999   -0.9298    1.9951 H   0  0  0  0  0  0  0  0  0  0  0  0
   -1.1309   -0.8391    1.4768 H   0  0  0  0  0  0  0  0  0  0  0  0
   -0.8019   -3.5128   -3.3240 H   0  0  0  0  0  0  0  0  0  0  0  0
   -1.6973   -1.6982   -1.2666 H   0  0  0  0  0  0  0  0  0  0  0  0
   -2.5327   -3.2473   -1.5310 H   0  0  0  0  0  0  0  0  0  0  0  0
   -2.1543   -1.3058   -3.7285 H   0  0  0  0  0  0  0  0  0  0  0  0
   -3.5188   -1.2187   -2.5727 H   0  0  0  0  0  0  0  0  0  0  0  0
   -2.9256   -3.4047   -4.4928 H   0  0  0  0  0  0  0  0  0  0  0  0
   -4.2942   -2.2372   -4.4771 H   0  0  0  0  0  0  0  0  0  0  0  0
   -3.8461   -4.5297   -2.6545 H   0  0  0  0  0  0  0  0  0  0  0  0
   -5.1579   -4.2408   -3.8545 H   0  0  0  0  0  0  0  0  0  0  0  0
   -4.7748   -2.8045   -1.2893 H   0  0  0  0  0  0  0  0  0  0  0  0
   -6.0144   -4.0379   -1.7102 H   0  0  0  0  0  0  0  0  0  0  0  0
   -5.8138   -1.3097   -2.8672 H   0  0  0  0  0  0  0  0  0  0  0  0
   -6.9784   -1.8749   -1.6588 H   0  0  0  0  0  0  0  0  0  0  0  0
   -6.8204   -3.0434   -4.3064 H   0  0  0  0  0  0  0  0  0  0  0  0
  -11.0158   -3.1519   -2.7224 H   0  0  0  0  0  0  0  0  0  0  0  0
  -12.4459   -1.9227   -1.2007 H   0  0  0  0  0  0  0  0  0  0  0  0
  -15.8709    6.3356   -4.0580 H   0  0  0  0  0  0  0  0  0  0  0  0
  -13.7095    8.9724   -1.5786 H   0  0  0  0  0  0  0  0  0  0  0  0
  -16.2457    6.6427    1.0168 H   0  0  0  0  0  0  0  0  0  0  0  0
  -17.1406    6.1385    3.4140 H   0  0  0  0  0  0  0  0  0  0  0  0
  -14.5965    3.0672    2.3011 H   0  0  0  0  0  0  0  0  0  0  0  0
  -17.3043    5.7569    8.5042 H   0  0  0  0  0  0  0  0  0  0  0  0
  -20.4758    4.7889    5.9001 H   0  0  0  0  0  0  0  0  0  0  0  0
  -14.9591   -4.1275    7.1623 H   0  0  0  0  0  0  0  0  0  0  0  0
  -10.9998   -2.8038    7.7552 H   0  0  0  0  0  0  0  0  0  0  0  0
  -11.8100   -2.5253    3.5850 H   0  0  0  0  0  0  0  0  0  0  0  0
  -10.9447   -2.0384    1.2472 H   0  0  0  0  0  0  0  0  0  0  0  0
  -13.4412    1.0952    2.3554 H   0  0  0  0  0  0  0  0  0  0  0  0
  -15.0888   -0.0280    6.9805 H   0  0  0  0  0  0  0  0  0  0  0  0
  -16.5576    2.0622    6.8242 H   0  0  0  0  0  0  0  0  0  0  0  0
  -12.7719    4.1761   -2.2412 H   0  0  0  0  0  0  0  0  0  0  0  0
  -11.6496    1.8759   -2.3112 H   0  0  0  0  0  0  0  0  0  0  0  0
   -9.4957    1.0574   -0.8390 H   0  0  0  0  0  0  0  0  0  0  0  0
   -8.1547   -0.0774   -2.5116 H   0  0  0  0  0  0  0  0  0  0  0  0
  1  2  1  0  0  0  0
  1 90  1  0  0  0  0
  1 91  1  0  0  0  0
  1 92  1  0  0  0  0
  2  3  1  0  0  0  0
  2 93  1  0  0  0  0
  2 94  1  0  0  0  0
  3  4  1  0  0  0  0
  3 12  1  0  0  0  0
  3 95  1  1  0  0  0
  4  5  1  0  0  0  0
  4 96  1  0  0  0  0
  4 97  1  0  0  0  0
  5  6  1  0  0  0  0
  5 11  2  0  0  0  0
  6  7  2  0  0  0  0
  6 98  1  0  0  0  0
  7  8  1  0  0  0  0
  7 99  1  0  0  0  0
  8  9  1  0  0  0  0
  8 10  2  0  0  0  0
 10 11  1  0  0  0  0
 10100  1  0  0  0  0
 11101  1  0  0  0  0
 12 13  2  0  0  0  0
 12 14  1  0  0  0  0
 14 15  1  0  0  0  0
 14102  1  0  0  0  0
 15 16  1  0  0  0  0
 15103  1  0  0  0  0
 15104  1  0  0  0  0
 16 17  1  0  0  0  0
 16105  1  0  0  0  0
 16106  1  0  0  0  0
 17 18  1  0  0  0  0
 17107  1  0  0  0  0
 17108  1  0  0  0  0
 18 19  1  0  0  0  0
 18109  1  0  0  0  0
 18110  1  0  0  0  0
 19 20  1  0  0  0  0
 19111  1  0  0  0  0
 19112  1  0  0  0  0
 20 21  1  0  0  0  0
 20113  1  0  0  0  0
 20114  1  0  0  0  0
 21 22  1  0  0  0  0
 21115  1  0  0  0  0
 22 23  2  0  0  0  0
 22 24  1  0  0  0  0
 24 25  1  0  0  0  0
 24 89  2  0  0  0  0
 25 26  2  0  0  0  0
 25116  1  0  0  0  0
 26 27  1  0  0  0  0
 26117  1  0  0  0  0
 27 28  1  0  0  0  0
 27 88  2  0  0  0  0
 28 29  1  0  0  0  0
 28 82  2  0  0  0  0
 29 30  2  0  0  0  0
 29 87  1  0  0  0  0
 30 31  1  0  0  0  0
 31 32  2  0  0  0  0
 31 86  1  0  0  0  0
 32 33  1  0  0  0  0
 32 45  1  0  0  0  0
 33 34  1  0  0  0  0
 33 43  2  0  0  0  0
 34 35  1  0  0  0  0
 34 36  2  0  0  0  0
 36 37  1  0  0  0  0
 36118  1  0  0  0  0
 37 38  1  0  0  0  0
 37 42  2  0  0  0  0
 38 39  2  0  0  0  0
 38 40  2  0  0  0  0
 38 41  1  0  0  0  0
 42 43  1  0  0  0  0
 42119  1  0  0  0  0
 43 44  1  0  0  0  0
 45 46  2  0  0  0  0
 45 49  1  0  0  0  0
 46 47  1  0  0  0  0
 46120  1  0  0  0  0
 47 48  2  0  0  0  0
 47121  1  0  0  0  0
 48 49  1  0  0  0  0
 48 50  1  0  0  0  0
 49122  1  0  0  0  0
 50 51  1  0  0  0  0
 50 63  2  0  0  0  0
 51 52  1  0  0  0  0
 51 61  2  0  0  0  0
 52 53  1  0  0  0  0
 52 54  2  0  0  0  0
 54 55  1  0  0  0  0
 54123  1  0  0  0  0
 55 56  1  0  0  0  0
 55 60  2  0  0  0  0
 56 57  2  0  0  0  0
 56 58  2  0  0  0  0
 56 59  1  0  0  0  0
 60 61  1  0  0  0  0
 60124  1  0  0  0  0
 61 62  1  0  0  0  0
 63 64  1  0  0  0  0
 63 85  1  0  0  0  0
 64 65  2  0  0  0  0
 65 66  1  0  0  0  0
 65 84  1  0  0  0  0
 66 67  1  0  0  0  0
 66 79  2  0  0  0  0
 67 68  1  0  0  0  0
 67 77  2  0  0  0  0
 68 69  1  0  0  0  0
 68 70  2  0  0  0  0
 70 71  1  0  0  0  0
 70125  1  0  0  0  0
 71 72  1  0  0  0  0
 71 76  2  0  0  0  0
 72 73  2  0  0  0  0
 72 74  2  0  0  0  0
 72 75  1  0  0  0  0
 76 77  1  0  0  0  0
 76126  1  0  0  0  0
 77 78  1  0  0  0  0
 79 80  1  0  0  0  0
 79 83  1  0  0  0  0
 80 81  2  0  0  0  0
 80127  1  0  0  0  0
 81 82  1  0  0  0  0
 81128  1  0  0  0  0
 82 83  1  0  0  0  0
 83129  1  0  0  0  0
 84 85  2  0  0  0  0
 84130  1  0  0  0  0
 85131  1  0  0  0  0
 86 87  2  0  0  0  0
 86132  1  0  0  0  0
 87133  1  0  0  0  0
 88 89  1  0  0  0  0
 88134  1  0  0  0  0
 89135  1  0  0  0  0
M  CHG  4   1   1  41  -1  59  -1  75  -1
M  END
$$$$
