4_0_1272
 OpenBabel04152301373D

144153  0  0  1  0  0  0  0  0999 V2000
    1.3337    0.1551    1.9384 C   0  0  0  0  0  0  0  0  0  0  0  0
    1.1452    0.1403    0.4190 C   0  0  2  0  0  0  0  0  0  0  0  0
    0.4261    1.4004   -0.0796 C   0  0  0  0  0  0  0  0  0  0  0  0
   -1.0801    1.3708    0.1730 C   0  0  0  0  0  0  0  0  0  0  0  0
   -1.7289    0.1159   -0.4122 C   0  0  0  0  0  0  0  0  0  0  0  0
   -1.0731   -1.1815    0.0775 C   0  0  2  0  0  0  0  0  0  0  0  0
   -1.4557   -1.4451    1.4632 N   0  0  0  0  0  0  0  0  0  0  0  0
   -2.0718   -2.4308    2.1378 C   0  0  0  0  0  0  0  0  0  0  0  0
   -2.0117   -2.3469    3.3675 O   0  0  0  0  0  0  0  0  0  0  0  0
   -2.7130   -3.4671    1.5204 N   0  0  0  0  0  0  0  0  0  0  0  0
   -3.2305   -3.4525    0.1613 C   0  0  0  0  0  0  0  0  0  0  0  0
   -3.2695   -4.4954    2.4134 C   0  0  0  0  0  0  0  0  0  0  0  0
   -2.3027   -5.2966    3.3033 C   0  0  0  0  0  0  0  0  0  0  0  0
   -2.5985   -5.5816    4.4690 O   0  0  0  0  0  0  0  0  0  0  0  0
   -1.2028   -5.9063    2.7756 N   0  0  0  0  0  0  0  0  0  0  0  0
   -0.7380   -5.9345    1.4077 C   0  0  0  0  0  0  0  0  0  0  0  0
    0.5743   -5.1727    1.2474 C   0  0  0  0  0  0  0  0  0  0  0  0
    1.7741   -5.8595    1.9141 C   0  0  0  0  0  0  0  0  0  0  0  0
    2.0594   -7.2867    1.4309 C   0  0  0  0  0  0  0  0  0  0  0  0
    2.2671   -7.4287   -0.0787 C   0  0  0  0  0  0  0  0  0  0  0  0
    3.4427   -6.6291   -0.6304 C   0  0  0  0  0  0  0  0  0  0  0  0
    4.7119   -7.0795   -0.0797 N   0  0  0  0  0  0  0  0  0  0  0  0
    5.8431   -7.5028   -0.7339 C   0  0  0  0  0  0  0  0  0  0  0  0
    6.7438   -8.0524   -0.1104 O   0  0  0  0  0  0  0  0  0  0  0  0
    5.9596   -7.3063   -2.1950 C   0  0  0  0  0  0  0  0  0  0  0  0
    6.4397   -8.3536   -2.9845 C   0  0  0  0  0  0  0  0  0  0  0  0
    6.4981   -8.2012   -4.3716 C   0  0  0  0  0  0  0  0  0  0  0  0
    6.0363   -7.0209   -4.9781 C   0  0  0  0  0  0  0  0  0  0  0  0
    6.0157   -6.8704   -6.4562 C   0  0  0  0  0  0  0  0  0  0  0  0
    6.8466   -5.8056   -7.1202 C   0  0  0  0  0  0  0  0  0  0  0  0
    6.9088   -5.4762   -8.3846 N   0  0  0  0  0  0  0  0  0  0  0  0
    7.7960   -4.4083   -8.4556 C   0  0  0  0  0  0  0  0  0  0  0  0
    8.2496   -3.7551   -9.5522 C   0  0  0  0  0  0  0  0  0  0  0  0
    9.2263   -2.6286   -9.3424 C   0  0  0  0  0  0  0  0  0  0  0  0
   10.5372   -2.8603   -8.8944 C   0  0  0  0  0  0  0  0  0  0  0  0
   10.9379   -4.1049   -8.5892 F   0  0  0  0  0  0  0  0  0  0  0  0
   11.4394   -1.8176   -8.7101 C   0  0  0  0  0  0  0  0  0  0  0  0
   11.0399   -0.5143   -9.0094 C   0  0  0  0  0  0  0  0  0  0  0  0
   12.2257    0.8254   -8.7706 S   0  0  0  0  0  0  0  0  0  0  0  0
   12.2943    0.8967   -7.3141 O   0  0  0  0  0  0  0  0  0  0  0  0
   13.4170    0.3087   -9.4364 O   0  0  0  0  0  0  0  0  0  0  0  0
   11.5892    1.9646   -9.4242 O   0  5  0  0  0  0  0  0  0  0  0  0
    9.7568   -0.2482   -9.4847 C   0  0  0  0  0  0  0  0  0  0  0  0
    8.8606   -1.3034   -9.6307 C   0  0  0  0  0  0  0  0  0  0  0  0
    7.6208   -1.0223  -10.0617 F   0  0  0  0  0  0  0  0  0  0  0  0
    7.8538   -4.0748  -10.8997 C   0  0  0  0  0  0  0  0  0  0  0  0
    8.2957   -3.5082  -12.0825 C   0  0  0  0  0  0  0  0  0  0  0  0
    7.5903   -4.0940  -13.1384 C   0  0  0  0  0  0  0  0  0  0  0  0
    6.7543   -5.0702  -12.6202 C   0  0  0  0  0  0  0  0  0  0  0  0
    6.9208   -5.0422  -11.2452 N   0  0  0  0  0  0  0  0  0  0  0  0
    5.8704   -5.9615  -13.3312 C   0  0  0  0  0  0  0  0  0  0  0  0
    5.8423   -5.8660  -14.8328 C   0  0  0  0  0  0  0  0  0  0  0  0
    4.7348   -5.3492  -15.5227 C   0  0  0  0  0  0  0  0  0  0  0  0
    3.6339   -4.9756  -14.8512 F   0  0  0  0  0  0  0  0  0  0  0  0
    4.7305   -5.2369  -16.9095 C   0  0  0  0  0  0  0  0  0  0  0  0
    5.8670   -5.6187  -17.6253 C   0  0  0  0  0  0  0  0  0  0  0  0
    5.8604   -5.4329  -19.4208 S   0  0  0  0  0  0  0  0  0  0  0  0
    4.9539   -6.5029  -19.8238 O   0  0  0  0  0  0  0  0  0  0  0  0
    5.3537   -4.0747  -19.5911 O   0  0  0  0  0  0  0  0  0  0  0  0
    7.2602   -5.6243  -19.7883 O   0  5  0  0  0  0  0  0  0  0  0  0
    6.9940   -6.1143  -16.9720 C   0  0  0  0  0  0  0  0  0  0  0  0
    6.9641   -6.2477  -15.5877 C   0  0  0  0  0  0  0  0  0  0  0  0
    8.0547   -6.7387  -14.9778 F   0  0  0  0  0  0  0  0  0  0  0  0
    5.0818   -6.8984  -12.7482 C   0  0  0  0  0  0  0  0  0  0  0  0
    4.9483   -7.2161  -11.4006 N   0  0  0  0  0  0  0  0  0  0  0  0
    4.0615   -8.1817  -11.3458 C   0  0  0  0  0  0  0  0  0  0  0  0
    3.5537   -8.9320  -10.1439 C   0  0  0  0  0  0  0  0  0  0  0  0
    2.5340  -10.0064  -10.2877 C   0  0  0  0  0  0  0  0  0  0  0  0
    2.8438  -11.2170  -10.9252 C   0  0  0  0  0  0  0  0  0  0  0  0
    4.0712  -11.4135  -11.4306 F   0  0  0  0  0  0  0  0  0  0  0  0
    1.8979  -12.2261  -11.0749 C   0  0  0  0  0  0  0  0  0  0  0  0
    0.6176  -12.0364  -10.5523 C   0  0  0  0  0  0  0  0  0  0  0  0
   -0.5894  -13.3701  -10.7126 S   0  0  0  0  0  0  0  0  0  0  0  0
   -0.8925  -13.3221  -12.1380 O   0  0  0  0  0  0  0  0  0  0  0  0
    0.1740  -14.5284  -10.2591 O   0  0  0  0  0  0  0  0  0  0  0  0
   -1.6694  -12.9531   -9.8228 O   0  5  0  0  0  0  0  0  0  0  0  0
    0.2786  -10.8552   -9.8941 C   0  0  0  0  0  0  0  0  0  0  0  0
    1.2335   -9.8495   -9.7828 C   0  0  0  0  0  0  0  0  0  0  0  0
    0.8894   -8.7176   -9.1486 F   0  0  0  0  0  0  0  0  0  0  0  0
    4.0470   -8.6298   -8.9269 C   0  0  0  0  0  0  0  0  0  0  0  0
    3.6603   -9.2743   -7.6759 C   0  0  0  0  0  0  0  0  0  0  0  0
    4.3125   -8.6873   -6.6599 C   0  0  0  0  0  0  0  0  0  0  0  0
    5.2002   -7.6510   -7.1930 C   0  0  0  0  0  0  0  0  0  0  0  0
    4.9761   -7.6895   -8.5466 N   0  0  0  0  0  0  0  0  0  0  0  0
    3.5079   -8.5644  -12.6516 C   0  0  0  0  0  0  0  0  0  0  0  0
    4.1932   -7.7822  -13.4742 C   0  0  0  0  0  0  0  0  0  0  0  0
    8.2016   -4.1066   -7.1003 C   0  0  0  0  0  0  0  0  0  0  0  0
    7.6995   -4.9851   -6.2449 C   0  0  0  0  0  0  0  0  0  0  0  0
    5.5827   -5.9689   -4.1685 C   0  0  0  0  0  0  0  0  0  0  0  0
    5.5971   -6.0909   -2.7824 C   0  0  0  0  0  0  0  0  0  0  0  0
    0.4539   -1.1356   -0.0907 C   0  0  0  0  0  0  0  0  0  0  0  0
    1.8176    1.0641    2.2289 H   0  0  0  0  0  0  0  0  0  0  0  0
    1.9364   -0.6791    2.2312 H   0  0  0  0  0  0  0  0  0  0  0  0
    0.3788    0.0906    2.4169 H   0  0  0  0  0  0  0  0  0  0  0  0
    2.1308    0.1385    0.0025 H   0  0  0  0  0  0  0  0  0  0  0  0
    0.5930    1.4936   -1.1324 H   0  0  0  0  0  0  0  0  0  0  0  0
    0.8244    2.2312    0.4645 H   0  0  0  0  0  0  0  0  0  0  0  0
   -1.5242    2.2332   -0.2787 H   0  0  0  0  0  0  0  0  0  0  0  0
   -1.2401    1.3657    1.2310 H   0  0  0  0  0  0  0  0  0  0  0  0
   -1.6497    0.1567   -1.4785 H   0  0  0  0  0  0  0  0  0  0  0  0
   -2.7484    0.1016   -0.0878 H   0  0  0  0  0  0  0  0  0  0  0  0
   -1.4271   -1.9904   -0.5269 H   0  0  0  0  0  0  0  0  0  0  0  0
   -1.1931   -0.7066    2.0590 H   0  0  0  0  0  0  0  0  0  0  0  0
   -2.7569   -2.6689   -0.3923 H   0  0  0  0  0  0  0  0  0  0  0  0
   -4.2871   -3.2850    0.1837 H   0  0  0  0  0  0  0  0  0  0  0  0
   -3.0283   -4.3929   -0.3075 H   0  0  0  0  0  0  0  0  0  0  0  0
   -3.7899   -5.1997    1.7985 H   0  0  0  0  0  0  0  0  0  0  0  0
   -3.8679   -3.9433    3.1077 H   0  0  0  0  0  0  0  0  0  0  0  0
   -0.6446   -6.3986    3.4201 H   0  0  0  0  0  0  0  0  0  0  0  0
   -1.4791   -5.4865    0.7793 H   0  0  0  0  0  0  0  0  0  0  0  0
   -0.5702   -6.9544    1.1310 H   0  0  0  0  0  0  0  0  0  0  0  0
    0.4564   -4.2022    1.6824 H   0  0  0  0  0  0  0  0  0  0  0  0
    0.7832   -5.1286    0.1989 H   0  0  0  0  0  0  0  0  0  0  0  0
    1.5910   -5.8969    2.9677 H   0  0  0  0  0  0  0  0  0  0  0  0
    2.6334   -5.2789    1.6506 H   0  0  0  0  0  0  0  0  0  0  0  0
    1.2317   -7.9039    1.7116 H   0  0  0  0  0  0  0  0  0  0  0  0
    2.9814   -7.5788    1.8885 H   0  0  0  0  0  0  0  0  0  0  0  0
    1.3768   -7.0982   -0.5716 H   0  0  0  0  0  0  0  0  0  0  0  0
    2.4864   -8.4599   -0.2613 H   0  0  0  0  0  0  0  0  0  0  0  0
    3.3053   -5.5971   -0.3834 H   0  0  0  0  0  0  0  0  0  0  0  0
    3.4721   -6.7717   -1.6904 H   0  0  0  0  0  0  0  0  0  0  0  0
    4.7680   -7.0811    0.9032 H   0  0  0  0  0  0  0  0  0  0  0  0
    6.7494   -9.2348   -2.5456 H   0  0  0  0  0  0  0  0  0  0  0  0
    6.8830   -8.9605   -4.9549 H   0  0  0  0  0  0  0  0  0  0  0  0
   12.3908   -2.0052   -8.3570 H   0  0  0  0  0  0  0  0  0  0  0  0
    9.4758    0.7154   -9.7245 H   0  0  0  0  0  0  0  0  0  0  0  0
    9.0208   -2.7791  -12.1702 H   0  0  0  0  0  0  0  0  0  0  0  0
    7.6776   -3.8419  -14.1353 H   0  0  0  0  0  0  0  0  0  0  0  0
    6.4469   -5.6231  -10.6071 H   0  0  0  0  0  0  0  0  0  0  0  0
    3.8986   -4.8763  -17.4024 H   0  0  0  0  0  0  0  0  0  0  0  0
    7.8366   -6.3779  -17.5064 H   0  0  0  0  0  0  0  0  0  0  0  0
    2.1392  -13.1017  -11.5649 H   0  0  0  0  0  0  0  0  0  0  0  0
   -0.6651  -10.7288   -9.4960 H   0  0  0  0  0  0  0  0  0  0  0  0
    2.9925  -10.0560   -7.5866 H   0  0  0  0  0  0  0  0  0  0  0  0
    4.2055   -8.9278   -5.6620 H   0  0  0  0  0  0  0  0  0  0  0  0
    5.4372   -7.0993   -9.1856 H   0  0  0  0  0  0  0  0  0  0  0  0
    2.7774   -9.2595  -12.8711 H   0  0  0  0  0  0  0  0  0  0  0  0
    4.1046   -7.8008  -14.5022 H   0  0  0  0  0  0  0  0  0  0  0  0
    8.8032   -3.3113   -6.8345 H   0  0  0  0  0  0  0  0  0  0  0  0
    7.8636   -5.0716   -5.2297 H   0  0  0  0  0  0  0  0  0  0  0  0
    5.2363   -5.0995   -4.6034 H   0  0  0  0  0  0  0  0  0  0  0  0
    5.3408   -5.2860   -2.1896 H   0  0  0  0  0  0  0  0  0  0  0  0
    0.8678   -1.9676    0.4398 H   0  0  0  0  0  0  0  0  0  0  0  0
    0.6310   -1.1606   -1.1456 H   0  0  0  0  0  0  0  0  0  0  0  0
  1 92  1  0  0  0  0
  1 93  1  0  0  0  0
  1 94  1  0  0  0  0
  2  3  1  0  0  0  0
  2 91  1  0  0  0  0
  2  1  1  0  0  0  0
  2 95  1  6  0  0  0
  3  4  1  0  0  0  0
  3 96  1  0  0  0  0
  3 97  1  0  0  0  0
  4  5  1  0  0  0  0
  4 98  1  0  0  0  0
  4 99  1  0  0  0  0
  5  6  1  0  0  0  0
  5100  1  0  0  0  0
  5101  1  0  0  0  0
  6  7  1  0  0  0  0
  6 91  1  0  0  0  0
  6102  1  6  0  0  0
  7  8  1  0  0  0  0
  7103  1  0  0  0  0
  8  9  2  0  0  0  0
  8 10  1  0  0  0  0
 10 11  1  0  0  0  0
 10 12  1  0  0  0  0
 11104  1  0  0  0  0
 11105  1  0  0  0  0
 11106  1  0  0  0  0
 12 13  1  0  0  0  0
 12107  1  0  0  0  0
 12108  1  0  0  0  0
 13 14  2  0  0  0  0
 13 15  1  0  0  0  0
 15 16  1  0  0  0  0
 15109  1  0  0  0  0
 16 17  1  0  0  0  0
 16110  1  0  0  0  0
 16111  1  0  0  0  0
 17 18  1  0  0  0  0
 17112  1  0  0  0  0
 17113  1  0  0  0  0
 18 19  1  0  0  0  0
 18114  1  0  0  0  0
 18115  1  0  0  0  0
 19 20  1  0  0  0  0
 19116  1  0  0  0  0
 19117  1  0  0  0  0
 20 21  1  0  0  0  0
 20118  1  0  0  0  0
 20119  1  0  0  0  0
 21 22  1  0  0  0  0
 21120  1  0  0  0  0
 21121  1  0  0  0  0
 22 23  1  0  0  0  0
 22122  1  0  0  0  0
 23 24  2  0  0  0  0
 23 25  1  0  0  0  0
 25 26  1  0  0  0  0
 25 90  2  0  0  0  0
 26 27  2  0  0  0  0
 26123  1  0  0  0  0
 27 28  1  0  0  0  0
 27124  1  0  0  0  0
 28 29  1  0  0  0  0
 28 89  2  0  0  0  0
 29 30  1  0  0  0  0
 29 83  2  0  0  0  0
 30 31  2  0  0  0  0
 30 88  1  0  0  0  0
 31 32  1  0  0  0  0
 32 33  2  0  0  0  0
 32 87  1  0  0  0  0
 33 34  1  0  0  0  0
 33 46  1  0  0  0  0
 34 35  1  0  0  0  0
 34 44  2  0  0  0  0
 35 36  1  0  0  0  0
 35 37  2  0  0  0  0
 37 38  1  0  0  0  0
 37125  1  0  0  0  0
 38 39  1  0  0  0  0
 38 43  2  0  0  0  0
 39 40  2  0  0  0  0
 39 41  2  0  0  0  0
 39 42  1  0  0  0  0
 43 44  1  0  0  0  0
 43126  1  0  0  0  0
 44 45  1  0  0  0  0
 46 47  2  0  0  0  0
 46 50  1  0  0  0  0
 47 48  1  0  0  0  0
 47127  1  0  0  0  0
 48 49  2  0  0  0  0
 48128  1  0  0  0  0
 49 50  1  0  0  0  0
 49 51  1  0  0  0  0
 50129  1  0  0  0  0
 51 52  1  0  0  0  0
 51 64  2  0  0  0  0
 52 53  1  0  0  0  0
 52 62  2  0  0  0  0
 53 54  1  0  0  0  0
 53 55  2  0  0  0  0
 55 56  1  0  0  0  0
 55130  1  0  0  0  0
 56 57  1  0  0  0  0
 56 61  2  0  0  0  0
 57 58  2  0  0  0  0
 57 59  2  0  0  0  0
 57 60  1  0  0  0  0
 61 62  1  0  0  0  0
 61131  1  0  0  0  0
 62 63  1  0  0  0  0
 64 65  1  0  0  0  0
 64 86  1  0  0  0  0
 65 66  2  0  0  0  0
 66 67  1  0  0  0  0
 66 85  1  0  0  0  0
 67 68  1  0  0  0  0
 67 80  2  0  0  0  0
 68 69  1  0  0  0  0
 68 78  2  0  0  0  0
 69 70  1  0  0  0  0
 69 71  2  0  0  0  0
 71 72  1  0  0  0  0
 71132  1  0  0  0  0
 72 73  1  0  0  0  0
 72 77  2  0  0  0  0
 73 74  2  0  0  0  0
 73 75  2  0  0  0  0
 73 76  1  0  0  0  0
 77 78  1  0  0  0  0
 77133  1  0  0  0  0
 78 79  1  0  0  0  0
 80 81  1  0  0  0  0
 80 84  1  0  0  0  0
 81 82  2  0  0  0  0
 81134  1  0  0  0  0
 82 83  1  0  0  0  0
 82135  1  0  0  0  0
 83 84  1  0  0  0  0
 84136  1  0  0  0  0
 85 86  2  0  0  0  0
 85137  1  0  0  0  0
 86138  1  0  0  0  0
 87 88  2  0  0  0  0
 87139  1  0  0  0  0
 88140  1  0  0  0  0
 89 90  1  0  0  0  0
 89141  1  0  0  0  0
 90142  1  0  0  0  0
 91143  1  0  0  0  0
 91144  1  0  0  0  0
M  CHG  3  42  -1  60  -1  76  -1
M  END
$$$$
