4_0_2492
 OpenBabel04152301363D

149159  0  0  0  0  0  0  0  0999 V2000
    1.1956   -0.1470   -1.0731 C   0  0  0  0  0  0  0  0  0  0  0  0
    0.7257    0.1438    0.3251 C   0  0  0  0  0  0  0  0  0  0  0  0
   -0.1127    1.3226    0.5573 C   0  0  0  0  0  0  0  0  0  0  0  0
   -1.2128    1.7324   -0.0939 C   0  0  0  0  0  0  0  0  0  0  0  0
   -2.0105    0.9952   -1.4204 S   0  0  0  0  0  0  0  0  0  0  0  0
   -3.2961    2.1970   -1.4473 C   0  0  0  0  0  0  0  0  0  0  0  0
   -4.4479    2.2218   -2.6554 S   0  0  0  0  0  0  0  0  0  0  0  0
   -3.1790    3.0326   -0.3587 N   0  0  0  0  0  0  0  0  0  0  0  0
   -4.0989    4.1236   -0.0128 C   0  0  0  0  0  0  0  0  0  0  0  0
   -4.9025    4.0143    1.2992 C   0  0  0  0  0  0  0  0  0  0  0  0
   -5.0165    5.0005    2.0360 O   0  0  0  0  0  0  0  0  0  0  0  0
   -5.6538    2.9350    1.6468 N   0  0  0  0  0  0  0  0  0  0  0  0
   -5.9217    1.6706    0.9834 C   0  0  0  0  0  0  0  0  0  0  0  0
   -5.7682    0.4181    1.8646 C   0  0  0  0  0  0  0  0  0  0  0  0
   -6.5557   -0.5260    1.7605 O   0  0  0  0  0  0  0  0  0  0  0  0
   -4.6686    0.2450    2.6559 N   0  0  0  0  0  0  0  0  0  0  0  0
   -3.5010    1.0873    2.7804 C   0  0  0  0  0  0  0  0  0  0  0  0
   -3.3022    1.6276    4.1911 C   0  0  0  0  0  0  0  0  0  0  0  0
   -2.4956    0.6965    5.1019 C   0  0  0  0  0  0  0  0  0  0  0  0
   -1.0931    0.3364    4.5930 C   0  0  0  0  0  0  0  0  0  0  0  0
   -0.1803    1.5332    4.3136 C   0  0  0  0  0  0  0  0  0  0  0  0
    0.3445    2.2274    5.5596 C   0  0  0  0  0  0  0  0  0  0  0  0
    1.3128    1.3916    6.2570 N   0  0  0  0  0  0  0  0  0  0  0  0
    2.6628    1.5534    6.4523 C   0  0  0  0  0  0  0  0  0  0  0  0
    3.3228    0.5946    6.8485 O   0  0  0  0  0  0  0  0  0  0  0  0
    3.3316    2.8518    6.1940 C   0  0  0  0  0  0  0  0  0  0  0  0
    4.6629    2.8552    5.7609 C   0  0  0  0  0  0  0  0  0  0  0  0
    5.3255    4.0672    5.5372 C   0  0  0  0  0  0  0  0  0  0  0  0
    4.6468    5.2864    5.6872 C   0  0  0  0  0  0  0  0  0  0  0  0
    5.3197    6.5949    5.4703 C   0  0  0  0  0  0  0  0  0  0  0  0
    5.4158    7.5824    6.6075 C   0  0  0  0  0  0  0  0  0  0  0  0
    5.8444    8.8185    6.5983 N   0  0  0  0  0  0  0  0  0  0  0  0
    5.6516    9.2970    7.8902 C   0  0  0  0  0  0  0  0  0  0  0  0
    5.9982   10.4977    8.4126 C   0  0  0  0  0  0  0  0  0  0  0  0
    5.6651   10.7532    9.8577 C   0  0  0  0  0  0  0  0  0  0  0  0
    6.3362   10.0870   10.8961 C   0  0  0  0  0  0  0  0  0  0  0  0
    7.2697    9.1638   10.6149 F   0  0  0  0  0  0  0  0  0  0  0  0
    6.0273   10.3217   12.2317 C   0  0  0  0  0  0  0  0  0  0  0  0
    5.0469   11.2639   12.5456 C   0  0  0  0  0  0  0  0  0  0  0  0
    4.6630   11.5615   14.2843 S   0  0  0  0  0  0  0  0  0  0  0  0
    3.9079   10.3595   14.6248 O   0  0  0  0  0  0  0  0  0  0  0  0
    5.9892   11.6668   14.8843 O   0  0  0  0  0  0  0  0  0  0  0  0
    3.8915   12.8000   14.2550 O   0  5  0  0  0  0  0  0  0  0  0  0
    4.3810   11.9679   11.5431 C   0  0  0  0  0  0  0  0  0  0  0  0
    4.6861   11.6957   10.2120 C   0  0  0  0  0  0  0  0  0  0  0  0
    4.0134   12.3624    9.2608 F   0  0  0  0  0  0  0  0  0  0  0  0
    6.6781   11.5284    7.6738 C   0  0  0  0  0  0  0  0  0  0  0  0
    7.1236   12.7591    8.1228 C   0  0  0  0  0  0  0  0  0  0  0  0
    7.7136   13.4294    7.0460 C   0  0  0  0  0  0  0  0  0  0  0  0
    7.6720   12.5995    5.9370 C   0  0  0  0  0  0  0  0  0  0  0  0
    7.0237   11.4422    6.3332 N   0  0  0  0  0  0  0  0  0  0  0  0
    8.1878   12.8468    4.6143 C   0  0  0  0  0  0  0  0  0  0  0  0
    8.9022   14.1474    4.3787 C   0  0  0  0  0  0  0  0  0  0  0  0
    8.3175   15.1874    3.6408 C   0  0  0  0  0  0  0  0  0  0  0  0
    7.1129   15.0189    3.0729 F   0  0  0  0  0  0  0  0  0  0  0  0
    8.9716   16.4007    3.4548 C   0  0  0  0  0  0  0  0  0  0  0  0
   10.2265   16.5917    4.0372 C   0  0  0  0  0  0  0  0  0  0  0  0
   11.0500   18.1831    3.8188 S   0  0  0  0  0  0  0  0  0  0  0  0
   11.5136   18.0868    2.4387 O   0  0  0  0  0  0  0  0  0  0  0  0
    9.9673   19.1323    4.0592 O   0  0  0  0  0  0  0  0  0  0  0  0
   12.0968   18.1660    4.8363 O   0  5  0  0  0  0  0  0  0  0  0  0
   10.8276   15.5876    4.7950 C   0  0  0  0  0  0  0  0  0  0  0  0
   10.1667   14.3733    4.9466 C   0  0  0  0  0  0  0  0  0  0  0  0
   10.7641   13.4136    5.6708 F   0  0  0  0  0  0  0  0  0  0  0  0
    8.0969   11.9867    3.5702 C   0  0  0  0  0  0  0  0  0  0  0  0
    7.5313   10.7170    3.5268 N   0  0  0  0  0  0  0  0  0  0  0  0
    7.6864   10.2976    2.2933 C   0  0  0  0  0  0  0  0  0  0  0  0
    7.2899    8.9787    1.6856 C   0  0  0  0  0  0  0  0  0  0  0  0
    7.5539    8.6935    0.2499 C   0  0  0  0  0  0  0  0  0  0  0  0
    8.8639    8.5064   -0.2160 C   0  0  0  0  0  0  0  0  0  0  0  0
    9.8967    8.5912    0.6365 F   0  0  0  0  0  0  0  0  0  0  0  0
    9.1330    8.2591   -1.5581 C   0  0  0  0  0  0  0  0  0  0  0  0
    8.0684    8.1725   -2.4565 C   0  0  0  0  0  0  0  0  0  0  0  0
    8.4240    7.8134   -4.1905 S   0  0  0  0  0  0  0  0  0  0  0  0
    8.9491    9.0926   -4.6530 O   0  0  0  0  0  0  0  0  0  0  0  0
    9.3911    6.7249   -4.0876 O   0  0  0  0  0  0  0  0  0  0  0  0
    7.1204    7.4333   -4.7270 O   0  5  0  0  0  0  0  0  0  0  0  0
    6.7512    8.3286   -2.0260 C   0  0  0  0  0  0  0  0  0  0  0  0
    6.5095    8.5999   -0.6825 C   0  0  0  0  0  0  0  0  0  0  0  0
    5.2367    8.7523   -0.2851 F   0  0  0  0  0  0  0  0  0  0  0  0
    6.7144    8.0434    2.4661 C   0  0  0  0  0  0  0  0  0  0  0  0
    6.2782    6.7231    2.0228 C   0  0  0  0  0  0  0  0  0  0  0  0
    5.7110    6.0785    3.0557 C   0  0  0  0  0  0  0  0  0  0  0  0
    5.7811    6.9260    4.2482 C   0  0  0  0  0  0  0  0  0  0  0  0
    6.3911    8.0721    3.8026 N   0  0  0  0  0  0  0  0  0  0  0  0
    8.3414   11.2684    1.4058 C   0  0  0  0  0  0  0  0  0  0  0  0
    8.6054   12.2628    2.2423 C   0  0  0  0  0  0  0  0  0  0  0  0
    5.0161    8.2387    8.6426 C   0  0  0  0  0  0  0  0  0  0  0  0
    4.9301    7.1304    7.9228 C   0  0  0  0  0  0  0  0  0  0  0  0
    3.3112    5.2683    6.1115 C   0  0  0  0  0  0  0  0  0  0  0  0
    2.6886    4.0667    6.4364 C   0  0  0  0  0  0  0  0  0  0  0  0
   -2.0087    2.9072    0.3799 C   0  0  0  0  0  0  0  0  0  0  0  0
   -1.6940    3.5956    1.3318 O   0  0  0  0  0  0  0  0  0  0  0  0
    1.0663   -0.6160    1.3876 C   0  0  0  0  0  0  0  0  0  0  0  0
    1.8993   -1.8254    1.4316 C   0  0  0  0  0  0  0  0  0  0  0  0
    1.3825   -2.9771    2.0420 C   0  0  0  0  0  0  0  0  0  0  0  0
    2.1657   -4.1264    2.1713 C   0  0  0  0  0  0  0  0  0  0  0  0
    3.4762   -4.1310    1.6993 C   0  0  0  0  0  0  0  0  0  0  0  0
    4.0068   -2.9832    1.1127 C   0  0  0  0  0  0  0  0  0  0  0  0
    3.2253   -1.8313    0.9898 C   0  0  0  0  0  0  0  0  0  0  0  0
    0.7991    0.5875   -1.7426 H   0  0  0  0  0  0  0  0  0  0  0  0
    0.8574   -1.1183   -1.3683 H   0  0  0  0  0  0  0  0  0  0  0  0
    2.2648   -0.1171   -1.1035 H   0  0  0  0  0  0  0  0  0  0  0  0
    0.1870    1.9280    1.3375 H   0  0  0  0  0  0  0  0  0  0  0  0
   -4.8061    4.2069   -0.8114 H   0  0  0  0  0  0  0  0  0  0  0  0
   -3.4608    4.9691    0.1381 H   0  0  0  0  0  0  0  0  0  0  0  0
   -6.1036    3.0289    2.5175 H   0  0  0  0  0  0  0  0  0  0  0  0
   -5.2448    1.5799    0.1597 H   0  0  0  0  0  0  0  0  0  0  0  0
   -6.9508    1.7023    0.6922 H   0  0  0  0  0  0  0  0  0  0  0  0
   -4.6718   -0.5634    3.2178 H   0  0  0  0  0  0  0  0  0  0  0  0
   -3.6049    1.9149    2.1102 H   0  0  0  0  0  0  0  0  0  0  0  0
   -2.6474    0.4865    2.5453 H   0  0  0  0  0  0  0  0  0  0  0  0
   -4.2648    1.7806    4.6325 H   0  0  0  0  0  0  0  0  0  0  0  0
   -2.7439    2.5360    4.1011 H   0  0  0  0  0  0  0  0  0  0  0  0
   -3.0484   -0.2121    5.2190 H   0  0  0  0  0  0  0  0  0  0  0  0
   -2.3505    1.2304    6.0178 H   0  0  0  0  0  0  0  0  0  0  0  0
   -1.2017   -0.2178    3.6842 H   0  0  0  0  0  0  0  0  0  0  0  0
   -0.6242   -0.2213    5.3766 H   0  0  0  0  0  0  0  0  0  0  0  0
   -0.7321    2.2480    3.7396 H   0  0  0  0  0  0  0  0  0  0  0  0
    0.6738    1.1510    3.7945 H   0  0  0  0  0  0  0  0  0  0  0  0
   -0.4750    2.4346    6.2156 H   0  0  0  0  0  0  0  0  0  0  0  0
    0.8287    3.1348    5.2647 H   0  0  0  0  0  0  0  0  0  0  0  0
    0.9364    0.5736    6.6551 H   0  0  0  0  0  0  0  0  0  0  0  0
    5.1565    1.9622    5.6063 H   0  0  0  0  0  0  0  0  0  0  0  0
    6.3196    4.0645    5.2601 H   0  0  0  0  0  0  0  0  0  0  0  0
    6.5163    9.8063   12.9802 H   0  0  0  0  0  0  0  0  0  0  0  0
    3.6733   12.6794   11.7838 H   0  0  0  0  0  0  0  0  0  0  0  0
    7.0358   13.1201    9.0856 H   0  0  0  0  0  0  0  0  0  0  0  0
    8.1123   14.3809    7.0729 H   0  0  0  0  0  0  0  0  0  0  0  0
    6.8357   10.6719    5.7497 H   0  0  0  0  0  0  0  0  0  0  0  0
    8.5356   17.1495    2.8942 H   0  0  0  0  0  0  0  0  0  0  0  0
   11.7476   15.7428    5.2361 H   0  0  0  0  0  0  0  0  0  0  0  0
   10.1049    8.1415   -1.8845 H   0  0  0  0  0  0  0  0  0  0  0  0
    5.9682    8.2443   -2.6929 H   0  0  0  0  0  0  0  0  0  0  0  0
    6.3880    6.3453    1.0687 H   0  0  0  0  0  0  0  0  0  0  0  0
    5.2924    5.1361    3.0155 H   0  0  0  0  0  0  0  0  0  0  0  0
    6.5796    8.8428    4.3854 H   0  0  0  0  0  0  0  0  0  0  0  0
    8.5430   11.1954    0.3963 H   0  0  0  0  0  0  0  0  0  0  0  0
    9.1094   13.1244    1.9804 H   0  0  0  0  0  0  0  0  0  0  0  0
    4.6748    8.3342    9.6118 H   0  0  0  0  0  0  0  0  0  0  0  0
    4.6067    6.1931    8.2091 H   0  0  0  0  0  0  0  0  0  0  0  0
    2.7851    6.1532    6.1836 H   0  0  0  0  0  0  0  0  0  0  0  0
    1.7469    4.0740    6.8586 H   0  0  0  0  0  0  0  0  0  0  0  0
    0.6888   -0.3037    2.2959 H   0  0  0  0  0  0  0  0  0  0  0  0
    0.4143   -2.9756    2.3991 H   0  0  0  0  0  0  0  0  0  0  0  0
    1.7739   -4.9712    2.6160 H   0  0  0  0  0  0  0  0  0  0  0  0
    4.0532   -4.9825    1.7837 H   0  0  0  0  0  0  0  0  0  0  0  0
    4.9796   -2.9841    0.7682 H   0  0  0  0  0  0  0  0  0  0  0  0
    3.6298   -0.9796    0.5702 H   0  0  0  0  0  0  0  0  0  0  0  0
  1  2  1  0  0  0  0
  1101  1  0  0  0  0
  1102  1  0  0  0  0
  1103  1  0  0  0  0
  2  3  1  0  0  0  0
  2 94  2  0  0  0  0
  3  4  2  0  0  0  0
  3104  1  0  0  0  0
  4  5  1  0  0  0  0
  4 92  1  0  0  0  0
  5  6  1  0  0  0  0
  6  7  2  0  0  0  0
  6  8  1  0  0  0  0
  8  9  1  0  0  0  0
  8 92  1  0  0  0  0
  9 10  1  0  0  0  0
  9105  1  0  0  0  0
  9106  1  0  0  0  0
 10 11  2  0  0  0  0
 10 12  1  0  0  0  0
 12 13  1  0  0  0  0
 12107  1  0  0  0  0
 13 14  1  0  0  0  0
 13108  1  0  0  0  0
 13109  1  0  0  0  0
 14 15  2  0  0  0  0
 14 16  1  0  0  0  0
 16 17  1  0  0  0  0
 16110  1  0  0  0  0
 17 18  1  0  0  0  0
 17111  1  0  0  0  0
 17112  1  0  0  0  0
 18 19  1  0  0  0  0
 18113  1  0  0  0  0
 18114  1  0  0  0  0
 19 20  1  0  0  0  0
 19115  1  0  0  0  0
 19116  1  0  0  0  0
 20 21  1  0  0  0  0
 20117  1  0  0  0  0
 20118  1  0  0  0  0
 21 22  1  0  0  0  0
 21119  1  0  0  0  0
 21120  1  0  0  0  0
 22 23  1  0  0  0  0
 22121  1  0  0  0  0
 22122  1  0  0  0  0
 23 24  1  0  0  0  0
 23123  1  0  0  0  0
 24 25  2  0  0  0  0
 24 26  1  0  0  0  0
 26 27  1  0  0  0  0
 26 91  2  0  0  0  0
 27 28  2  0  0  0  0
 27124  1  0  0  0  0
 28 29  1  0  0  0  0
 28125  1  0  0  0  0
 29 30  1  0  0  0  0
 29 90  2  0  0  0  0
 30 31  1  0  0  0  0
 30 84  2  0  0  0  0
 31 32  2  0  0  0  0
 31 89  1  0  0  0  0
 32 33  1  0  0  0  0
 33 34  2  0  0  0  0
 33 88  1  0  0  0  0
 34 35  1  0  0  0  0
 34 47  1  0  0  0  0
 35 36  1  0  0  0  0
 35 45  2  0  0  0  0
 36 37  1  0  0  0  0
 36 38  2  0  0  0  0
 38 39  1  0  0  0  0
 38126  1  0  0  0  0
 39 40  1  0  0  0  0
 39 44  2  0  0  0  0
 40 41  2  0  0  0  0
 40 42  2  0  0  0  0
 40 43  1  0  0  0  0
 44 45  1  0  0  0  0
 44127  1  0  0  0  0
 45 46  1  0  0  0  0
 47 48  2  0  0  0  0
 47 51  1  0  0  0  0
 48 49  1  0  0  0  0
 48128  1  0  0  0  0
 49 50  2  0  0  0  0
 49129  1  0  0  0  0
 50 51  1  0  0  0  0
 50 52  1  0  0  0  0
 51130  1  0  0  0  0
 52 53  1  0  0  0  0
 52 65  2  0  0  0  0
 53 54  1  0  0  0  0
 53 63  2  0  0  0  0
 54 55  1  0  0  0  0
 54 56  2  0  0  0  0
 56 57  1  0  0  0  0
 56131  1  0  0  0  0
 57 58  1  0  0  0  0
 57 62  2  0  0  0  0
 58 59  2  0  0  0  0
 58 60  2  0  0  0  0
 58 61  1  0  0  0  0
 62 63  1  0  0  0  0
 62132  1  0  0  0  0
 63 64  1  0  0  0  0
 65 66  1  0  0  0  0
 65 87  1  0  0  0  0
 66 67  2  0  0  0  0
 67 68  1  0  0  0  0
 67 86  1  0  0  0  0
 68 69  1  0  0  0  0
 68 81  2  0  0  0  0
 69 70  1  0  0  0  0
 69 79  2  0  0  0  0
 70 71  1  0  0  0  0
 70 72  2  0  0  0  0
 72 73  1  0  0  0  0
 72133  1  0  0  0  0
 73 74  1  0  0  0  0
 73 78  2  0  0  0  0
 74 75  2  0  0  0  0
 74 76  2  0  0  0  0
 74 77  1  0  0  0  0
 78 79  1  0  0  0  0
 78134  1  0  0  0  0
 79 80  1  0  0  0  0
 81 82  1  0  0  0  0
 81 85  1  0  0  0  0
 82 83  2  0  0  0  0
 82135  1  0  0  0  0
 83 84  1  0  0  0  0
 83136  1  0  0  0  0
 84 85  1  0  0  0  0
 85137  1  0  0  0  0
 86 87  2  0  0  0  0
 86138  1  0  0  0  0
 87139  1  0  0  0  0
 88 89  2  0  0  0  0
 88140  1  0  0  0  0
 89141  1  0  0  0  0
 90 91  1  0  0  0  0
 90142  1  0  0  0  0
 91143  1  0  0  0  0
 92 93  2  0  0  0  0
 94 95  1  0  0  0  0
 94144  1  0  0  0  0
 95 96  1  0  0  0  0
 95100  2  0  0  0  0
 96 97  2  0  0  0  0
 96145  1  0  0  0  0
 97 98  1  0  0  0  0
 97146  1  0  0  0  0
 98 99  2  0  0  0  0
 98147  1  0  0  0  0
 99100  1  0  0  0  0
 99148  1  0  0  0  0
100149  1  0  0  0  0
M  CHG  3  43  -1  61  -1  77  -1
M  END
$$$$
