4_0_6997
 OpenBabel04152301373D

142151  0  0  1  0  0  0  0  0999 V2000
   -0.2693   -4.0231   -0.4004 C   0  0  0  0  0  0  0  0  0  0  0  0
   -1.0277   -2.9651    0.4174 C   0  0  0  0  0  0  0  0  0  0  0  0
   -0.4333   -2.9595    1.8329 C   0  0  0  0  0  0  0  0  0  0  0  0
   -0.9978   -1.5476   -0.2321 C   0  0  1  0  0  0  0  0  0  0  0  0
   -1.4717   -1.5468   -1.7065 C   0  0  0  0  0  0  0  0  0  0  0  0
   -1.1724   -0.2140   -2.4142 C   0  0  0  0  0  0  0  0  0  0  0  0
   -1.6614    1.0285   -1.6525 C   0  0  1  0  0  0  0  0  0  0  0  0
   -3.1734    1.2240   -1.8106 C   0  0  0  0  0  0  0  0  0  0  0  0
   -1.2521    0.9541   -0.1734 C   0  0  0  0  0  0  0  0  0  0  0  0
   -1.7183   -0.3619    0.4321 C   0  0  0  0  0  0  0  0  0  0  0  0
   -2.7063   -0.3184    1.3500 C   0  0  0  0  0  0  0  0  0  0  0  0
   -3.1942    0.8900    1.7142 F   0  0  0  0  0  0  0  0  0  0  0  0
   -3.4131   -1.4643    1.9788 C   0  0  0  0  0  0  0  0  0  0  0  0
   -3.8099   -2.4305    1.3341 O   0  0  0  0  0  0  0  0  0  0  0  0
   -3.5899   -1.4635    3.3311 N   0  0  0  0  0  0  0  0  0  0  0  0
   -3.9425   -0.3422    4.1827 C   0  0  0  0  0  0  0  0  0  0  0  0
   -5.4674   -0.2903    4.3312 C   0  0  0  0  0  0  0  0  0  0  0  0
   -6.0629   -1.5274    5.0242 C   0  0  0  0  0  0  0  0  0  0  0  0
   -5.5471   -1.7785    6.4445 C   0  0  0  0  0  0  0  0  0  0  0  0
   -5.7520   -0.6139    7.4163 C   0  0  0  0  0  0  0  0  0  0  0  0
   -7.1984   -0.1487    7.5585 C   0  0  0  0  0  0  0  0  0  0  0  0
   -8.0631   -1.1882    8.0901 N   0  0  0  0  0  0  0  0  0  0  0  0
   -9.0594   -1.0851    9.0287 C   0  0  0  0  0  0  0  0  0  0  0  0
   -9.5860   -2.0991    9.4760 O   0  0  0  0  0  0  0  0  0  0  0  0
   -9.4745    0.2474    9.5197 C   0  0  0  0  0  0  0  0  0  0  0  0
   -9.6337    0.4335   10.8949 C   0  0  0  0  0  0  0  0  0  0  0  0
   -9.9806    1.6931   11.3870 C   0  0  0  0  0  0  0  0  0  0  0  0
  -10.1425    2.7796   10.5112 C   0  0  0  0  0  0  0  0  0  0  0  0
  -10.4404    4.1357   11.0364 C   0  0  0  0  0  0  0  0  0  0  0  0
  -11.7673    4.7874   10.7622 C   0  0  0  0  0  0  0  0  0  0  0  0
  -12.2004    5.9641   11.1362 N   0  0  0  0  0  0  0  0  0  0  0  0
  -13.4720    6.0923   10.5907 C   0  0  0  0  0  0  0  0  0  0  0  0
  -14.3579    7.1075   10.7345 C   0  0  0  0  0  0  0  0  0  0  0  0
  -15.6794    6.9767   10.0301 C   0  0  0  0  0  0  0  0  0  0  0  0
  -16.6607    6.0760   10.4743 C   0  0  0  0  0  0  0  0  0  0  0  0
  -16.4189    5.2781   11.5265 F   0  0  0  0  0  0  0  0  0  0  0  0
  -17.8818    5.9496    9.8203 C   0  0  0  0  0  0  0  0  0  0  0  0
  -18.1426    6.7545    8.7102 C   0  0  0  0  0  0  0  0  0  0  0  0
  -19.7305    6.5805    7.8686 S   0  0  0  0  0  0  0  0  0  0  0  0
  -19.5243    5.3486    7.1132 O   0  0  0  0  0  0  0  0  0  0  0  0
  -20.6697    6.4905    8.9820 O   0  0  0  0  0  0  0  0  0  0  0  0
  -19.8258    7.7986    7.0703 O   0  5  0  0  0  0  0  0  0  0  0  0
  -17.2040    7.6821    8.2592 C   0  0  0  0  0  0  0  0  0  0  0  0
  -15.9794    7.7750    8.9150 C   0  0  0  0  0  0  0  0  0  0  0  0
  -15.0767    8.6521    8.4487 F   0  0  0  0  0  0  0  0  0  0  0  0
  -14.1153    8.2889   11.5216 C   0  0  0  0  0  0  0  0  0  0  0  0
  -14.9706    9.3476   11.7751 C   0  0  0  0  0  0  0  0  0  0  0  0
  -14.2932   10.2781   12.5726 C   0  0  0  0  0  0  0  0  0  0  0  0
  -13.0278    9.7832   12.8431 C   0  0  0  0  0  0  0  0  0  0  0  0
  -12.9301    8.5670   12.1866 N   0  0  0  0  0  0  0  0  0  0  0  0
  -11.9863   10.3725   13.6457 C   0  0  0  0  0  0  0  0  0  0  0  0
  -12.2721   11.6806   14.3263 C   0  0  0  0  0  0  0  0  0  0  0  0
  -11.7061   12.8827   13.8741 C   0  0  0  0  0  0  0  0  0  0  0  0
  -10.8750   12.8834   12.8199 F   0  0  0  0  0  0  0  0  0  0  0  0
  -11.9527   14.0890   14.5210 C   0  0  0  0  0  0  0  0  0  0  0  0
  -12.7998   14.1023   15.6308 C   0  0  0  0  0  0  0  0  0  0  0  0
  -13.1167   15.6711   16.4662 S   0  0  0  0  0  0  0  0  0  0  0  0
  -11.9101   15.8215   17.2727 O   0  0  0  0  0  0  0  0  0  0  0  0
  -13.2535   16.6029   15.3508 O   0  0  0  0  0  0  0  0  0  0  0  0
  -14.3448   15.4135   17.2122 O   0  5  0  0  0  0  0  0  0  0  0  0
  -13.4080   12.9322   16.0849 C   0  0  0  0  0  0  0  0  0  0  0  0
  -13.1297   11.7334   15.4362 C   0  0  0  0  0  0  0  0  0  0  0  0
  -13.7045   10.6129   15.9009 F   0  0  0  0  0  0  0  0  0  0  0  0
  -10.7632    9.8256   13.8551 C   0  0  0  0  0  0  0  0  0  0  0  0
  -10.2444    8.6305   13.3710 N   0  0  0  0  0  0  0  0  0  0  0  0
   -9.0226    8.5545   13.8421 C   0  0  0  0  0  0  0  0  0  0  0  0
   -8.0069    7.4622   13.6584 C   0  0  0  0  0  0  0  0  0  0  0  0
   -6.6583    7.5637   14.2719 C   0  0  0  0  0  0  0  0  0  0  0  0
   -6.4854    7.4174   15.6558 C   0  0  0  0  0  0  0  0  0  0  0  0
   -7.5496    7.2083   16.4457 F   0  0  0  0  0  0  0  0  0  0  0  0
   -5.2285    7.4997   16.2450 C   0  0  0  0  0  0  0  0  0  0  0  0
   -4.1139    7.7159   15.4328 C   0  0  0  0  0  0  0  0  0  0  0  0
   -2.4775    7.7620   16.1958 S   0  0  0  0  0  0  0  0  0  0  0  0
   -2.4610    9.1009   16.7728 O   0  0  0  0  0  0  0  0  0  0  0  0
   -2.5474    6.6568   17.1468 O   0  0  0  0  0  0  0  0  0  0  0  0
   -1.5780    7.5479   15.0658 O   0  5  0  0  0  0  0  0  0  0  0  0
   -4.2467    7.8512   14.0508 C   0  0  0  0  0  0  0  0  0  0  0  0
   -5.5168    7.7850   13.4872 C   0  0  0  0  0  0  0  0  0  0  0  0
   -5.6301    7.9128   12.1560 F   0  0  0  0  0  0  0  0  0  0  0  0
   -8.3438    6.3605   12.9614 C   0  0  0  0  0  0  0  0  0  0  0  0
   -7.4787    5.2067   12.7357 C   0  0  0  0  0  0  0  0  0  0  0  0
   -8.1437    4.2969   12.0054 C   0  0  0  0  0  0  0  0  0  0  0  0
   -9.4924    4.7974   11.7283 C   0  0  0  0  0  0  0  0  0  0  0  0
   -9.5158    6.0335   12.3221 N   0  0  0  0  0  0  0  0  0  0  0  0
   -8.6193    9.7034   14.6639 C   0  0  0  0  0  0  0  0  0  0  0  0
   -9.7276   10.4314   14.6680 C   0  0  0  0  0  0  0  0  0  0  0  0
  -13.7227    4.8918    9.8217 C   0  0  0  0  0  0  0  0  0  0  0  0
  -12.7237    4.0287    9.9411 C   0  0  0  0  0  0  0  0  0  0  0  0
  -10.0049    2.5736    9.1308 C   0  0  0  0  0  0  0  0  0  0  0  0
   -9.7134    1.3039    8.6346 C   0  0  0  0  0  0  0  0  0  0  0  0
   -0.3281   -4.9684    0.0975 H   0  0  0  0  0  0  0  0  0  0  0  0
    0.7563   -3.7330   -0.4951 H   0  0  0  0  0  0  0  0  0  0  0  0
   -0.7082   -4.1043   -1.3728 H   0  0  0  0  0  0  0  0  0  0  0  0
   -2.0655   -3.2239    0.4479 H   0  0  0  0  0  0  0  0  0  0  0  0
    0.6033   -2.6991    1.7834 H   0  0  0  0  0  0  0  0  0  0  0  0
   -0.5364   -3.9321    2.2669 H   0  0  0  0  0  0  0  0  0  0  0  0
   -0.9526   -2.2434    2.4350 H   0  0  0  0  0  0  0  0  0  0  0  0
    0.0478   -1.3663   -0.0954 H   0  0  0  0  0  0  0  0  0  0  0  0
   -2.5275   -1.7190   -1.7289 H   0  0  0  0  0  0  0  0  0  0  0  0
   -0.9394   -2.3185   -2.2223 H   0  0  0  0  0  0  0  0  0  0  0  0
   -1.6482   -0.2288   -3.3725 H   0  0  0  0  0  0  0  0  0  0  0  0
   -0.1075   -0.1340   -2.4809 H   0  0  0  0  0  0  0  0  0  0  0  0
   -1.1881    1.8871   -2.0811 H   0  0  0  0  0  0  0  0  0  0  0  0
   -3.6873    0.3836   -1.3929 H   0  0  0  0  0  0  0  0  0  0  0  0
   -3.4153    1.3097   -2.8494 H   0  0  0  0  0  0  0  0  0  0  0  0
   -3.4731    2.1152   -1.2999 H   0  0  0  0  0  0  0  0  0  0  0  0
   -1.6998    1.7671    0.3591 H   0  0  0  0  0  0  0  0  0  0  0  0
   -0.1863    1.0149   -0.1013 H   0  0  0  0  0  0  0  0  0  0  0  0
   -3.4630   -2.3281    3.7846 H   0  0  0  0  0  0  0  0  0  0  0  0
   -3.5937    0.5677    3.7409 H   0  0  0  0  0  0  0  0  0  0  0  0
   -3.4889   -0.4613    5.1444 H   0  0  0  0  0  0  0  0  0  0  0  0
   -5.8993   -0.2088    3.3557 H   0  0  0  0  0  0  0  0  0  0  0  0
   -5.6931    0.5536    4.9491 H   0  0  0  0  0  0  0  0  0  0  0  0
   -5.8312   -2.3860    4.4293 H   0  0  0  0  0  0  0  0  0  0  0  0
   -7.1137   -1.3464    5.1129 H   0  0  0  0  0  0  0  0  0  0  0  0
   -4.4985   -1.9833    6.3866 H   0  0  0  0  0  0  0  0  0  0  0  0
   -6.1162   -2.5978    6.8315 H   0  0  0  0  0  0  0  0  0  0  0  0
   -5.1680    0.2140    7.0722 H   0  0  0  0  0  0  0  0  0  0  0  0
   -5.4526   -0.9686    8.3804 H   0  0  0  0  0  0  0  0  0  0  0  0
   -7.5624    0.1422    6.5953 H   0  0  0  0  0  0  0  0  0  0  0  0
   -7.2121    0.6712    8.2459 H   0  0  0  0  0  0  0  0  0  0  0  0
   -7.9139   -2.0911    7.7271 H   0  0  0  0  0  0  0  0  0  0  0  0
   -9.4955   -0.3566   11.5443 H   0  0  0  0  0  0  0  0  0  0  0  0
  -10.1190    1.8270   12.4009 H   0  0  0  0  0  0  0  0  0  0  0  0
  -18.5849    5.2704   10.1511 H   0  0  0  0  0  0  0  0  0  0  0  0
  -17.4138    8.2901    7.4521 H   0  0  0  0  0  0  0  0  0  0  0  0
  -15.9409    9.4359   11.4347 H   0  0  0  0  0  0  0  0  0  0  0  0
  -14.6722   11.1794   12.9028 H   0  0  0  0  0  0  0  0  0  0  0  0
  -12.1358    7.9853   12.1914 H   0  0  0  0  0  0  0  0  0  0  0  0
  -11.5158   14.9617   14.1855 H   0  0  0  0  0  0  0  0  0  0  0  0
  -14.0541   12.9553   16.8893 H   0  0  0  0  0  0  0  0  0  0  0  0
   -5.1214    7.4025   17.2668 H   0  0  0  0  0  0  0  0  0  0  0  0
   -3.4162    7.9980   13.4561 H   0  0  0  0  0  0  0  0  0  0  0  0
   -6.5116    5.1063   13.0817 H   0  0  0  0  0  0  0  0  0  0  0  0
   -7.7652    3.3902   11.6898 H   0  0  0  0  0  0  0  0  0  0  0  0
  -10.2983    6.6303   12.2932 H   0  0  0  0  0  0  0  0  0  0  0  0
   -7.7125    9.8938   15.1183 H   0  0  0  0  0  0  0  0  0  0  0  0
   -9.8387   11.3177   15.1849 H   0  0  0  0  0  0  0  0  0  0  0  0
  -14.5692    4.7290    9.2542 H   0  0  0  0  0  0  0  0  0  0  0  0
  -12.6390    3.0741    9.5582 H   0  0  0  0  0  0  0  0  0  0  0  0
  -10.1200    3.3657    8.4793 H   0  0  0  0  0  0  0  0  0  0  0  0
   -9.6739    1.1437    7.6159 H   0  0  0  0  0  0  0  0  0  0  0  0
  1  2  1  0  0  0  0
  1 91  1  0  0  0  0
  1 92  1  0  0  0  0
  1 93  1  0  0  0  0
  2  3  1  0  0  0  0
  2 94  1  0  0  0  0
  3 95  1  0  0  0  0
  3 96  1  0  0  0  0
  3 97  1  0  0  0  0
  4  5  1  0  0  0  0
  4 10  1  0  0  0  0
  4  2  1  0  0  0  0
  4 98  1  6  0  0  0
  5  6  1  0  0  0  0
  5 99  1  0  0  0  0
  5100  1  0  0  0  0
  6  7  1  0  0  0  0
  6101  1  0  0  0  0
  6102  1  0  0  0  0
  7  9  1  0  0  0  0
  7  8  1  0  0  0  0
  7103  1  6  0  0  0
  8104  1  0  0  0  0
  8105  1  0  0  0  0
  8106  1  0  0  0  0
  9 10  1  0  0  0  0
  9107  1  0  0  0  0
  9108  1  0  0  0  0
 10 11  2  0  0  0  0
 11 12  1  0  0  0  0
 11 13  1  0  0  0  0
 13 14  2  0  0  0  0
 13 15  1  0  0  0  0
 15 16  1  0  0  0  0
 15109  1  0  0  0  0
 16 17  1  0  0  0  0
 16110  1  0  0  0  0
 16111  1  0  0  0  0
 17 18  1  0  0  0  0
 17112  1  0  0  0  0
 17113  1  0  0  0  0
 18 19  1  0  0  0  0
 18114  1  0  0  0  0
 18115  1  0  0  0  0
 19 20  1  0  0  0  0
 19116  1  0  0  0  0
 19117  1  0  0  0  0
 20 21  1  0  0  0  0
 20118  1  0  0  0  0
 20119  1  0  0  0  0
 21 22  1  0  0  0  0
 21120  1  0  0  0  0
 21121  1  0  0  0  0
 22 23  1  0  0  0  0
 22122  1  0  0  0  0
 23 24  2  0  0  0  0
 23 25  1  0  0  0  0
 25 26  1  0  0  0  0
 25 90  2  0  0  0  0
 26 27  2  0  0  0  0
 26123  1  0  0  0  0
 27 28  1  0  0  0  0
 27124  1  0  0  0  0
 28 29  1  0  0  0  0
 28 89  2  0  0  0  0
 29 30  1  0  0  0  0
 29 83  2  0  0  0  0
 30 31  2  0  0  0  0
 30 88  1  0  0  0  0
 31 32  1  0  0  0  0
 32 33  2  0  0  0  0
 32 87  1  0  0  0  0
 33 34  1  0  0  0  0
 33 46  1  0  0  0  0
 34 35  1  0  0  0  0
 34 44  2  0  0  0  0
 35 36  1  0  0  0  0
 35 37  2  0  0  0  0
 37 38  1  0  0  0  0
 37125  1  0  0  0  0
 38 39  1  0  0  0  0
 38 43  2  0  0  0  0
 39 40  2  0  0  0  0
 39 41  2  0  0  0  0
 39 42  1  0  0  0  0
 43 44  1  0  0  0  0
 43126  1  0  0  0  0
 44 45  1  0  0  0  0
 46 47  2  0  0  0  0
 46 50  1  0  0  0  0
 47 48  1  0  0  0  0
 47127  1  0  0  0  0
 48 49  2  0  0  0  0
 48128  1  0  0  0  0
 49 50  1  0  0  0  0
 49 51  1  0  0  0  0
 50129  1  0  0  0  0
 51 52  1  0  0  0  0
 51 64  2  0  0  0  0
 52 53  1  0  0  0  0
 52 62  2  0  0  0  0
 53 54  1  0  0  0  0
 53 55  2  0  0  0  0
 55 56  1  0  0  0  0
 55130  1  0  0  0  0
 56 57  1  0  0  0  0
 56 61  2  0  0  0  0
 57 58  2  0  0  0  0
 57 59  2  0  0  0  0
 57 60  1  0  0  0  0
 61 62  1  0  0  0  0
 61131  1  0  0  0  0
 62 63  1  0  0  0  0
 64 65  1  0  0  0  0
 64 86  1  0  0  0  0
 65 66  2  0  0  0  0
 66 67  1  0  0  0  0
 66 85  1  0  0  0  0
 67 68  1  0  0  0  0
 67 80  2  0  0  0  0
 68 69  1  0  0  0  0
 68 78  2  0  0  0  0
 69 70  1  0  0  0  0
 69 71  2  0  0  0  0
 71 72  1  0  0  0  0
 71132  1  0  0  0  0
 72 73  1  0  0  0  0
 72 77  2  0  0  0  0
 73 74  2  0  0  0  0
 73 75  2  0  0  0  0
 73 76  1  0  0  0  0
 77 78  1  0  0  0  0
 77133  1  0  0  0  0
 78 79  1  0  0  0  0
 80 81  1  0  0  0  0
 80 84  1  0  0  0  0
 81 82  2  0  0  0  0
 81134  1  0  0  0  0
 82 83  1  0  0  0  0
 82135  1  0  0  0  0
 83 84  1  0  0  0  0
 84136  1  0  0  0  0
 85 86  2  0  0  0  0
 85137  1  0  0  0  0
 86138  1  0  0  0  0
 87 88  2  0  0  0  0
 87139  1  0  0  0  0
 88140  1  0  0  0  0
 89 90  1  0  0  0  0
 89141  1  0  0  0  0
 90142  1  0  0  0  0
M  CHG  3  42  -1  60  -1  76  -1
M  END
$$$$
