4_0_3006
 OpenBabel04152301373D

153164  0  0  1  0  0  0  0  0999 V2000
   11.8258   -3.8715   -0.6841 O   0  0  0  0  0  0  0  0  0  0  0  0
   10.6558   -3.5455   -0.8451 C   0  0  0  0  0  0  0  0  0  0  0  0
    9.5835   -4.5488   -1.2121 C   0  0  0  0  0  0  0  0  0  0  0  0
    8.8866   -5.1939   -0.0081 C   0  0  2  0  0  0  0  0  0  0  0  0
    9.0656   -4.4765    1.3451 C   0  0  0  0  0  0  0  0  0  0  0  0
    8.1915   -5.1130    2.3254 N   0  0  0  0  0  0  0  0  0  0  0  0
    7.1184   -4.6338    3.0048 C   0  0  0  0  0  0  0  0  0  0  0  0
    6.5404   -5.3274    3.8510 O   0  0  0  0  0  0  0  0  0  0  0  0
    6.5675   -3.4241    2.8281 N   0  0  0  0  0  0  0  0  0  0  0  0
    6.7117   -2.2239    2.0156 C   0  0  0  0  0  0  0  0  0  0  0  0
    5.4121   -1.8719    1.2765 C   0  0  1  0  0  0  0  0  0  0  0  0
    5.5131   -0.5757    0.4410 C   0  0  0  0  0  0  0  0  0  0  0  0
    4.9829   -0.9877   -0.9436 C   0  0  1  0  0  0  0  0  0  0  0  0
    6.0370   -1.8548   -1.6474 C   0  0  0  0  0  0  0  0  0  0  0  0
    5.9899   -3.1551   -0.8417 C   0  0  0  0  0  0  0  0  0  0  0  0
    4.9130   -2.8867    0.2196 C   0  0  2  0  0  0  0  0  0  0  0  0
    3.9265   -2.0261   -0.5782 C   0  0  0  0  0  0  0  0  0  0  0  0
    8.5487   -6.5320    2.4883 C   0  0  0  0  0  0  0  0  0  0  0  0
    8.5085   -7.2468    1.1272 C   0  0  0  0  0  0  0  0  0  0  0  0
    9.3129   -6.5713    0.1356 O   0  0  0  0  0  0  0  0  0  0  0  0
   10.1887   -2.2571   -0.6619 N   0  0  0  0  0  0  0  0  0  0  0  0
   11.0516   -1.2029   -0.1567 C   0  0  0  0  0  0  0  0  0  0  0  0
   10.6363    0.1977   -0.6126 C   0  0  0  0  0  0  0  0  0  0  0  0
    9.2408    0.6553   -0.1742 C   0  0  0  0  0  0  0  0  0  0  0  0
    8.9878    0.6760    1.3370 C   0  0  0  0  0  0  0  0  0  0  0  0
    9.7267    1.7604    2.1144 C   0  0  0  0  0  0  0  0  0  0  0  0
    9.3025    3.1870    1.7772 C   0  0  0  0  0  0  0  0  0  0  0  0
    7.9115    3.4825    2.0978 N   0  0  0  0  0  0  0  0  0  0  0  0
    7.3750    4.6583    2.5897 C   0  0  0  0  0  0  0  0  0  0  0  0
    6.1975    4.7274    2.8875 O   0  0  0  0  0  0  0  0  0  0  0  0
    8.2772    5.8170    2.7879 C   0  0  0  0  0  0  0  0  0  0  0  0
    8.2951    6.4600    4.0275 C   0  0  0  0  0  0  0  0  0  0  0  0
    9.2626    7.4365    4.2811 C   0  0  0  0  0  0  0  0  0  0  0  0
   10.2368    7.7371    3.3147 C   0  0  0  0  0  0  0  0  0  0  0  0
   11.3379    8.6979    3.5850 C   0  0  0  0  0  0  0  0  0  0  0  0
   11.4627    9.9412    2.7455 C   0  0  0  0  0  0  0  0  0  0  0  0
   12.4214   10.8299    2.7218 N   0  0  0  0  0  0  0  0  0  0  0  0
   12.0714   11.7365    1.7282 C   0  0  0  0  0  0  0  0  0  0  0  0
   12.6990   12.8798    1.3651 C   0  0  0  0  0  0  0  0  0  0  0  0
   12.0823   13.6919    0.2615 C   0  0  0  0  0  0  0  0  0  0  0  0
   10.8912   14.4079    0.4625 C   0  0  0  0  0  0  0  0  0  0  0  0
   10.2453   14.3292    1.6369 F   0  0  0  0  0  0  0  0  0  0  0  0
   10.3268   15.1784   -0.5473 C   0  0  0  0  0  0  0  0  0  0  0  0
   10.9754   15.2596   -1.7803 C   0  0  0  0  0  0  0  0  0  0  0  0
   10.2402   16.2825   -3.0730 S   0  0  0  0  0  0  0  0  0  0  0  0
    9.1144   15.4537   -3.4934 O   0  0  0  0  0  0  0  0  0  0  0  0
    9.8936   17.5011   -2.3487 O   0  0  0  0  0  0  0  0  0  0  0  0
   11.3162   16.4214   -4.0491 O   0  5  0  0  0  0  0  0  0  0  0  0
   12.1711   14.5795   -2.0100 C   0  0  0  0  0  0  0  0  0  0  0  0
   12.7044   13.7928   -0.9928 C   0  0  0  0  0  0  0  0  0  0  0  0
   13.8429   13.1255   -1.2390 F   0  0  0  0  0  0  0  0  0  0  0  0
   13.8960   13.3750    1.9905 C   0  0  0  0  0  0  0  0  0  0  0  0
   14.5906   14.5408    1.7194 C   0  0  0  0  0  0  0  0  0  0  0  0
   15.6895   14.6053    2.5825 C   0  0  0  0  0  0  0  0  0  0  0  0
   15.6588   13.4967    3.4130 C   0  0  0  0  0  0  0  0  0  0  0  0
   14.5645   12.7422    3.0275 N   0  0  0  0  0  0  0  0  0  0  0  0
   16.5613   13.1561    4.4823 C   0  0  0  0  0  0  0  0  0  0  0  0
   17.6521   14.1353    4.8083 C   0  0  0  0  0  0  0  0  0  0  0  0
   18.9873   13.8983    4.4498 C   0  0  0  0  0  0  0  0  0  0  0  0
   19.3321   12.7474    3.8510 F   0  0  0  0  0  0  0  0  0  0  0  0
   19.9858   14.8272    4.7221 C   0  0  0  0  0  0  0  0  0  0  0  0
   19.6432   16.0289    5.3458 C   0  0  0  0  0  0  0  0  0  0  0  0
   20.9406   17.2443    5.6593 S   0  0  0  0  0  0  0  0  0  0  0  0
   21.6129   16.6637    6.8167 O   0  0  0  0  0  0  0  0  0  0  0  0
   21.6972   17.2256    4.4111 O   0  0  0  0  0  0  0  0  0  0  0  0
   20.1975   18.4746    5.9152 O   0  5  0  0  0  0  0  0  0  0  0  0
   18.3226   16.3056    5.6978 C   0  0  0  0  0  0  0  0  0  0  0  0
   17.3441   15.3524    5.4372 C   0  0  0  0  0  0  0  0  0  0  0  0
   16.0789   15.6300    5.7902 F   0  0  0  0  0  0  0  0  0  0  0  0
   16.4913   12.0273    5.2292 C   0  0  0  0  0  0  0  0  0  0  0  0
   15.5658   10.9913    5.1674 N   0  0  0  0  0  0  0  0  0  0  0  0
   15.9325   10.1288    6.0855 C   0  0  0  0  0  0  0  0  0  0  0  0
   15.2749    8.8332    6.4819 C   0  0  0  0  0  0  0  0  0  0  0  0
   15.8798    7.9714    7.5329 C   0  0  0  0  0  0  0  0  0  0  0  0
   15.8903    8.3738    8.8771 C   0  0  0  0  0  0  0  0  0  0  0  0
   15.3304    9.5407    9.2313 F   0  0  0  0  0  0  0  0  0  0  0  0
   16.5065    7.6100    9.8630 C   0  0  0  0  0  0  0  0  0  0  0  0
   17.1062    6.4016    9.5056 C   0  0  0  0  0  0  0  0  0  0  0  0
   17.8955    5.4087   10.7917 S   0  0  0  0  0  0  0  0  0  0  0  0
   19.1457    6.1318   10.9922 O   0  0  0  0  0  0  0  0  0  0  0  0
   16.9287    5.4892   11.8823 O   0  0  0  0  0  0  0  0  0  0  0  0
   18.0172    4.0939   10.1689 O   0  5  0  0  0  0  0  0  0  0  0  0
   17.0821    5.9506    8.1861 C   0  0  0  0  0  0  0  0  0  0  0  0
   16.4811    6.7446    7.2138 C   0  0  0  0  0  0  0  0  0  0  0  0
   16.4791    6.3037    5.9462 F   0  0  0  0  0  0  0  0  0  0  0  0
   14.1215    8.4744    5.8848 C   0  0  0  0  0  0  0  0  0  0  0  0
   13.3654    7.2586    6.1660 C   0  0  0  0  0  0  0  0  0  0  0  0
   12.2950    7.2100    5.3552 C   0  0  0  0  0  0  0  0  0  0  0  0
   12.2699    8.4120    4.5170 C   0  0  0  0  0  0  0  0  0  0  0  0
   13.3900    9.1049    4.9046 N   0  0  0  0  0  0  0  0  0  0  0  0
   17.1532   10.5069    6.8118 C   0  0  0  0  0  0  0  0  0  0  0  0
   17.4285   11.6897    6.2799 C   0  0  0  0  0  0  0  0  0  0  0  0
   10.8430   11.2597    1.1323 C   0  0  0  0  0  0  0  0  0  0  0  0
   10.3830   10.1979    1.7771 C   0  0  0  0  0  0  0  0  0  0  0  0
   10.1671    7.1175    2.0572 C   0  0  0  0  0  0  0  0  0  0  0  0
    9.1551    6.2076    1.7752 C   0  0  0  0  0  0  0  0  0  0  0  0
   10.0354   -5.3250   -1.7936 H   0  0  0  0  0  0  0  0  0  0  0  0
    8.8313   -4.0112   -1.7506 H   0  0  0  0  0  0  0  0  0  0  0  0
    7.8447   -5.1160   -0.2389 H   0  0  0  0  0  0  0  0  0  0  0  0
    8.8031   -3.4441    1.2439 H   0  0  0  0  0  0  0  0  0  0  0  0
   10.0848   -4.5439    1.6640 H   0  0  0  0  0  0  0  0  0  0  0  0
    5.8172   -3.3091    3.4551 H   0  0  0  0  0  0  0  0  0  0  0  0
    7.4863   -2.3850    1.2953 H   0  0  0  0  0  0  0  0  0  0  0  0
    6.9532   -1.4100    2.6669 H   0  0  0  0  0  0  0  0  0  0  0  0
    4.7477   -1.8200    2.1136 H   0  0  0  0  0  0  0  0  0  0  0  0
    6.5277   -0.2420    0.3766 H   0  0  0  0  0  0  0  0  0  0  0  0
    4.9632    0.2361    0.8694 H   0  0  0  0  0  0  0  0  0  0  0  0
    4.6904   -0.1432   -1.5319 H   0  0  0  0  0  0  0  0  0  0  0  0
    7.0057   -1.4033   -1.5961 H   0  0  0  0  0  0  0  0  0  0  0  0
    5.8468   -1.9933   -2.6912 H   0  0  0  0  0  0  0  0  0  0  0  0
    6.9360   -3.3545   -0.3834 H   0  0  0  0  0  0  0  0  0  0  0  0
    5.7719   -4.0102   -1.4468 H   0  0  0  0  0  0  0  0  0  0  0  0
    4.5819   -3.7941    0.6799 H   0  0  0  0  0  0  0  0  0  0  0  0
    3.5166   -2.5301   -1.4284 H   0  0  0  0  0  0  0  0  0  0  0  0
    3.0308   -1.6954   -0.0953 H   0  0  0  0  0  0  0  0  0  0  0  0
    7.8522   -6.9981    3.1535 H   0  0  0  0  0  0  0  0  0  0  0  0
    9.5379   -6.6002    2.8905 H   0  0  0  0  0  0  0  0  0  0  0  0
    7.4953   -7.2808    0.7850 H   0  0  0  0  0  0  0  0  0  0  0  0
    8.9063   -8.2312    1.2598 H   0  0  0  0  0  0  0  0  0  0  0  0
    9.2510   -2.0495   -0.8785 H   0  0  0  0  0  0  0  0  0  0  0  0
   12.0485   -1.3885   -0.4984 H   0  0  0  0  0  0  0  0  0  0  0  0
   10.9782   -1.2209    0.9106 H   0  0  0  0  0  0  0  0  0  0  0  0
   10.6675    0.2176   -1.6820 H   0  0  0  0  0  0  0  0  0  0  0  0
   11.3234    0.8713   -0.1446 H   0  0  0  0  0  0  0  0  0  0  0  0
    8.5249   -0.0049   -0.6175 H   0  0  0  0  0  0  0  0  0  0  0  0
    9.1548    1.6720   -0.4963 H   0  0  0  0  0  0  0  0  0  0  0  0
    9.2839   -0.2728    1.7333 H   0  0  0  0  0  0  0  0  0  0  0  0
    7.9460    0.8888    1.4563 H   0  0  0  0  0  0  0  0  0  0  0  0
   10.7721    1.6656    1.9071 H   0  0  0  0  0  0  0  0  0  0  0  0
    9.4871    1.6094    3.1462 H   0  0  0  0  0  0  0  0  0  0  0  0
    9.4464    3.3420    0.7283 H   0  0  0  0  0  0  0  0  0  0  0  0
    9.9038    3.8389    2.3759 H   0  0  0  0  0  0  0  0  0  0  0  0
    7.2714    2.7505    1.9443 H   0  0  0  0  0  0  0  0  0  0  0  0
    7.5999    6.2163    4.7502 H   0  0  0  0  0  0  0  0  0  0  0  0
    9.2612    7.9390    5.1825 H   0  0  0  0  0  0  0  0  0  0  0  0
    9.4409   15.6831   -0.3876 H   0  0  0  0  0  0  0  0  0  0  0  0
   12.6528   14.6582   -2.9193 H   0  0  0  0  0  0  0  0  0  0  0  0
   14.3410   15.2415    1.0041 H   0  0  0  0  0  0  0  0  0  0  0  0
   16.4020   15.3517    2.5980 H   0  0  0  0  0  0  0  0  0  0  0  0
   14.2999   11.8835    3.4299 H   0  0  0  0  0  0  0  0  0  0  0  0
   20.9663   14.6312    4.4668 H   0  0  0  0  0  0  0  0  0  0  0  0
   18.0755   17.2027    6.1442 H   0  0  0  0  0  0  0  0  0  0  0  0
   16.5200    7.9319   10.8434 H   0  0  0  0  0  0  0  0  0  0  0  0
   17.5032    5.0426    7.9347 H   0  0  0  0  0  0  0  0  0  0  0  0
   13.6130    6.5498    6.8740 H   0  0  0  0  0  0  0  0  0  0  0  0
   11.6006    6.4471    5.3271 H   0  0  0  0  0  0  0  0  0  0  0  0
   13.6462    9.9729    4.5170 H   0  0  0  0  0  0  0  0  0  0  0  0
   17.6625    9.9877    7.5439 H   0  0  0  0  0  0  0  0  0  0  0  0
   18.2113   12.2930    6.5770 H   0  0  0  0  0  0  0  0  0  0  0  0
   10.3854   11.6897    0.3133 H   0  0  0  0  0  0  0  0  0  0  0  0
    9.4988    9.6845    1.6374 H   0  0  0  0  0  0  0  0  0  0  0  0
   10.8722    7.3391    1.3370 H   0  0  0  0  0  0  0  0  0  0  0  0
    9.0533    5.8230    0.8230 H   0  0  0  0  0  0  0  0  0  0  0  0
  1  2  2  0  0  0  0
  2  3  1  0  0  0  0
  2 21  1  0  0  0  0
  3  4  1  0  0  0  0
  3 97  1  0  0  0  0
  3 98  1  0  0  0  0
  4  5  1  0  0  0  0
  4 20  1  0  0  0  0
  4 99  1  6  0  0  0
  5  6  1  0  0  0  0
  5100  1  0  0  0  0
  5101  1  0  0  0  0
  6  7  1  0  0  0  0
  6 18  1  0  0  0  0
  7  8  2  0  0  0  0
  7  9  1  0  0  0  0
  9 10  1  0  0  0  0
  9102  1  0  0  0  0
 10103  1  0  0  0  0
 10104  1  0  0  0  0
 11 12  1  0  0  0  0
 11 16  1  0  0  0  0
 11 10  1  0  0  0  0
 11105  1  1  0  0  0
 12 13  1  0  0  0  0
 12106  1  0  0  0  0
 12107  1  0  0  0  0
 13 14  1  0  0  0  0
 13 17  1  0  0  0  0
 13108  1  6  0  0  0
 14 15  1  0  0  0  0
 14109  1  0  0  0  0
 14110  1  0  0  0  0
 15 16  1  0  0  0  0
 15111  1  0  0  0  0
 15112  1  0  0  0  0
 16 17  1  0  0  0  0
 16113  1  1  0  0  0
 17114  1  0  0  0  0
 17115  1  0  0  0  0
 18 19  1  0  0  0  0
 18116  1  0  0  0  0
 18117  1  0  0  0  0
 19 20  1  0  0  0  0
 19118  1  0  0  0  0
 19119  1  0  0  0  0
 21 22  1  0  0  0  0
 21120  1  0  0  0  0
 22 23  1  0  0  0  0
 22121  1  0  0  0  0
 22122  1  0  0  0  0
 23 24  1  0  0  0  0
 23123  1  0  0  0  0
 23124  1  0  0  0  0
 24 25  1  0  0  0  0
 24125  1  0  0  0  0
 24126  1  0  0  0  0
 25 26  1  0  0  0  0
 25127  1  0  0  0  0
 25128  1  0  0  0  0
 26 27  1  0  0  0  0
 26129  1  0  0  0  0
 26130  1  0  0  0  0
 27 28  1  0  0  0  0
 27131  1  0  0  0  0
 27132  1  0  0  0  0
 28 29  1  0  0  0  0
 28133  1  0  0  0  0
 29 30  2  0  0  0  0
 29 31  1  0  0  0  0
 31 32  1  0  0  0  0
 31 96  2  0  0  0  0
 32 33  2  0  0  0  0
 32134  1  0  0  0  0
 33 34  1  0  0  0  0
 33135  1  0  0  0  0
 34 35  1  0  0  0  0
 34 95  2  0  0  0  0
 35 36  1  0  0  0  0
 35 89  2  0  0  0  0
 36 37  2  0  0  0  0
 36 94  1  0  0  0  0
 37 38  1  0  0  0  0
 38 39  2  0  0  0  0
 38 93  1  0  0  0  0
 39 40  1  0  0  0  0
 39 52  1  0  0  0  0
 40 41  1  0  0  0  0
 40 50  2  0  0  0  0
 41 42  1  0  0  0  0
 41 43  2  0  0  0  0
 43 44  1  0  0  0  0
 43136  1  0  0  0  0
 44 45  1  0  0  0  0
 44 49  2  0  0  0  0
 45 46  2  0  0  0  0
 45 47  2  0  0  0  0
 45 48  1  0  0  0  0
 49 50  1  0  0  0  0
 49137  1  0  0  0  0
 50 51  1  0  0  0  0
 52 53  2  0  0  0  0
 52 56  1  0  0  0  0
 53 54  1  0  0  0  0
 53138  1  0  0  0  0
 54 55  2  0  0  0  0
 54139  1  0  0  0  0
 55 56  1  0  0  0  0
 55 57  1  0  0  0  0
 56140  1  0  0  0  0
 57 58  1  0  0  0  0
 57 70  2  0  0  0  0
 58 59  1  0  0  0  0
 58 68  2  0  0  0  0
 59 60  1  0  0  0  0
 59 61  2  0  0  0  0
 61 62  1  0  0  0  0
 61141  1  0  0  0  0
 62 63  1  0  0  0  0
 62 67  2  0  0  0  0
 63 64  2  0  0  0  0
 63 65  2  0  0  0  0
 63 66  1  0  0  0  0
 67 68  1  0  0  0  0
 67142  1  0  0  0  0
 68 69  1  0  0  0  0
 70 71  1  0  0  0  0
 70 92  1  0  0  0  0
 71 72  2  0  0  0  0
 72 73  1  0  0  0  0
 72 91  1  0  0  0  0
 73 74  1  0  0  0  0
 73 86  2  0  0  0  0
 74 75  1  0  0  0  0
 74 84  2  0  0  0  0
 75 76  1  0  0  0  0
 75 77  2  0  0  0  0
 77 78  1  0  0  0  0
 77143  1  0  0  0  0
 78 79  1  0  0  0  0
 78 83  2  0  0  0  0
 79 80  2  0  0  0  0
 79 81  2  0  0  0  0
 79 82  1  0  0  0  0
 83 84  1  0  0  0  0
 83144  1  0  0  0  0
 84 85  1  0  0  0  0
 86 87  1  0  0  0  0
 86 90  1  0  0  0  0
 87 88  2  0  0  0  0
 87145  1  0  0  0  0
 88 89  1  0  0  0  0
 88146  1  0  0  0  0
 89 90  1  0  0  0  0
 90147  1  0  0  0  0
 91 92  2  0  0  0  0
 91148  1  0  0  0  0
 92149  1  0  0  0  0
 93 94  2  0  0  0  0
 93150  1  0  0  0  0
 94151  1  0  0  0  0
 95 96  1  0  0  0  0
 95152  1  0  0  0  0
 96153  1  0  0  0  0
M  CHG  3  48  -1  66  -1  82  -1
M  END
$$$$
