4_0_4027
 OpenBabel04152301373D

136146  0  0  0  0  0  0  0  0999 V2000
    0.9808   -0.2815   -0.2067 C   0  0  0  0  0  0  0  0  0  0  0  0
    0.2536    0.6264   -1.0271 O   0  0  0  0  0  0  0  0  0  0  0  0
    0.7595    1.9649   -0.9630 C   0  0  0  0  0  0  0  0  0  0  0  0
    0.2895    2.6567    0.2859 C   0  0  0  0  0  0  0  0  0  0  0  0
   -0.2068    2.0779    1.3656 N   0  0  0  0  0  0  0  0  0  0  0  0
   -0.4216    3.0716    2.2783 C   0  0  0  0  0  0  0  0  0  0  0  0
   -0.8899    2.9801    3.5967 C   0  0  0  0  0  0  0  0  0  0  0  0
   -0.9903    4.1481    4.3600 C   0  0  0  0  0  0  0  0  0  0  0  0
   -0.6574    5.3860    3.8111 C   0  0  0  0  0  0  0  0  0  0  0  0
   -0.2114    5.4974    2.4891 C   0  0  0  0  0  0  0  0  0  0  0  0
   -0.0824    4.3113    1.7511 C   0  0  0  0  0  0  0  0  0  0  0  0
    0.3958    4.0221    0.4879 N   0  0  0  0  0  0  0  0  0  0  0  0
    0.9289    5.0016   -0.4450 C   0  0  0  0  0  0  0  0  0  0  0  0
    2.3440    4.7197   -0.9040 C   0  0  0  0  0  0  0  0  0  0  0  0
    2.5760    4.4266   -2.0795 O   0  0  0  0  0  0  0  0  0  0  0  0
    3.3929    4.8131   -0.0394 N   0  0  0  0  0  0  0  0  0  0  0  0
    3.3793    5.0109    1.3987 C   0  0  0  0  0  0  0  0  0  0  0  0
    3.6367    3.6961    2.1343 C   0  0  0  0  0  0  0  0  0  0  0  0
    5.1000    3.2401    2.0731 C   0  0  0  0  0  0  0  0  0  0  0  0
    6.0969    4.1793    2.7621 C   0  0  0  0  0  0  0  0  0  0  0  0
    5.7910    4.4891    4.2323 C   0  0  0  0  0  0  0  0  0  0  0  0
    5.6336    3.2487    5.1127 C   0  0  0  0  0  0  0  0  0  0  0  0
    6.8065    2.4001    5.1338 N   0  0  0  0  0  0  0  0  0  0  0  0
    8.0055    2.4370    5.7899 C   0  0  0  0  0  0  0  0  0  0  0  0
    8.7622    1.4834    5.5875 O   0  0  0  0  0  0  0  0  0  0  0  0
    8.4663    3.5509    6.6645 C   0  0  0  0  0  0  0  0  0  0  0  0
    7.6753    4.6047    7.1254 C   0  0  0  0  0  0  0  0  0  0  0  0
    8.2411    5.6640    7.8267 C   0  0  0  0  0  0  0  0  0  0  0  0
    9.6057    5.6641    8.1091 C   0  0  0  0  0  0  0  0  0  0  0  0
   10.1521    6.8110    8.8331 C   0  0  0  0  0  0  0  0  0  0  0  0
    9.6321    7.0231   10.2206 C   0  0  0  0  0  0  0  0  0  0  0  0
    9.1109    8.0872   10.7451 N   0  0  0  0  0  0  0  0  0  0  0  0
    8.8802    7.7856   12.0893 C   0  0  0  0  0  0  0  0  0  0  0  0
    8.6791    8.7394   13.0420 C   0  0  0  0  0  0  0  0  0  0  0  0
    9.0970    8.5965   14.4859 C   0  0  0  0  0  0  0  0  0  0  0  0
    8.6185    9.4989   15.4579 C   0  0  0  0  0  0  0  0  0  0  0  0
    7.6151   10.3437   15.1712 F   0  0  0  0  0  0  0  0  0  0  0  0
    9.1991    9.6106   16.7237 C   0  0  0  0  0  0  0  0  0  0  0  0
   10.2644    8.7800   17.0615 C   0  0  0  0  0  0  0  0  0  0  0  0
   11.0970    9.0067   18.6444 S   0  0  0  0  0  0  0  0  0  0  0  0
   11.7455   10.2982   18.4489 O   0  0  0  0  0  0  0  0  0  0  0  0
    9.9791    8.9874   19.5819 O   0  0  0  0  0  0  0  0  0  0  0  0
   11.9916    7.8554   18.7212 O   0  5  0  0  0  0  0  0  0  0  0  0
   10.7253    7.8271   16.1673 C   0  0  0  0  0  0  0  0  0  0  0  0
   10.1666    7.7693   14.8949 C   0  0  0  0  0  0  0  0  0  0  0  0
   10.7800    6.9361   14.0440 F   0  0  0  0  0  0  0  0  0  0  0  0
    8.3097   10.0043   12.4723 C   0  0  0  0  0  0  0  0  0  0  0  0
    7.2453   10.4544   11.7160 C   0  0  0  0  0  0  0  0  0  0  0  0
    7.8014   11.4252   10.8340 C   0  0  0  0  0  0  0  0  0  0  0  0
    9.1600   11.5321   11.1336 C   0  0  0  0  0  0  0  0  0  0  0  0
    9.2637   10.9874   12.3886 N   0  0  0  0  0  0  0  0  0  0  0  0
   10.2914   11.9646   10.3446 C   0  0  0  0  0  0  0  0  0  0  0  0
    9.9889   12.7060    9.0685 C   0  0  0  0  0  0  0  0  0  0  0  0
   10.1262   12.1554    7.7817 C   0  0  0  0  0  0  0  0  0  0  0  0
   10.5725   10.9032    7.6108 F   0  0  0  0  0  0  0  0  0  0  0  0
    9.7437   12.8568    6.6373 C   0  0  0  0  0  0  0  0  0  0  0  0
    9.1685   14.1191    6.7730 C   0  0  0  0  0  0  0  0  0  0  0  0
    8.6067   14.9935    5.2962 S   0  0  0  0  0  0  0  0  0  0  0  0
    9.8700   15.3374    4.6446 O   0  0  0  0  0  0  0  0  0  0  0  0
    7.8039   13.9770    4.6148 O   0  0  0  0  0  0  0  0  0  0  0  0
    7.8517   16.1176    5.8264 O   0  5  0  0  0  0  0  0  0  0  0  0
    8.9780   14.6800    8.0342 C   0  0  0  0  0  0  0  0  0  0  0  0
    9.3987   13.9761    9.1600 C   0  0  0  0  0  0  0  0  0  0  0  0
    9.1766   14.5299   10.3639 F   0  0  0  0  0  0  0  0  0  0  0  0
   11.5725   11.5439   10.5620 C   0  0  0  0  0  0  0  0  0  0  0  0
   12.5141   11.5358    9.5435 N   0  0  0  0  0  0  0  0  0  0  0  0
   13.3480   10.5855    9.8644 C   0  0  0  0  0  0  0  0  0  0  0  0
   14.0052    9.6773    8.8895 C   0  0  0  0  0  0  0  0  0  0  0  0
   15.4728    9.4350    8.8934 C   0  0  0  0  0  0  0  0  0  0  0  0
   16.3724   10.4482    9.2677 C   0  0  0  0  0  0  0  0  0  0  0  0
   15.9459   11.7134    9.4002 F   0  0  0  0  0  0  0  0  0  0  0  0
   17.7078   10.1784    9.5857 C   0  0  0  0  0  0  0  0  0  0  0  0
   18.1745    8.8659    9.5198 C   0  0  0  0  0  0  0  0  0  0  0  0
   19.8407    8.4841   10.1074 S   0  0  0  0  0  0  0  0  0  0  0  0
   20.6724    9.1547    9.1144 O   0  0  0  0  0  0  0  0  0  0  0  0
   19.8364    9.0749   11.4413 O   0  0  0  0  0  0  0  0  0  0  0  0
   19.8856    7.0243   10.0757 O   0  5  0  0  0  0  0  0  0  0  0  0
   17.3362    7.8422    9.0997 C   0  0  0  0  0  0  0  0  0  0  0  0
   16.0064    8.1322    8.8047 C   0  0  0  0  0  0  0  0  0  0  0  0
   15.2266    7.0783    8.5223 F   0  0  0  0  0  0  0  0  0  0  0  0
   13.0435    8.8866    8.3518 C   0  0  0  0  0  0  0  0  0  0  0  0
   13.1019    8.0115    7.1937 C   0  0  0  0  0  0  0  0  0  0  0  0
   11.9684    7.2792    7.1403 C   0  0  0  0  0  0  0  0  0  0  0  0
   11.1663    7.5490    8.3380 C   0  0  0  0  0  0  0  0  0  0  0  0
   11.7856    8.6331    8.8828 N   0  0  0  0  0  0  0  0  0  0  0  0
   13.3054   10.1659   11.2573 C   0  0  0  0  0  0  0  0  0  0  0  0
   12.1652   10.7489   11.6330 C   0  0  0  0  0  0  0  0  0  0  0  0
    9.1084    6.3710   12.2345 C   0  0  0  0  0  0  0  0  0  0  0  0
    9.6317    5.8577   11.1216 C   0  0  0  0  0  0  0  0  0  0  0  0
   10.3916    4.5702    7.7530 C   0  0  0  0  0  0  0  0  0  0  0  0
    9.8271    3.5314    7.0213 C   0  0  0  0  0  0  0  0  0  0  0  0
    0.5579   -1.2603   -0.2963 H   0  0  0  0  0  0  0  0  0  0  0  0
    0.9275    0.0381    0.8131 H   0  0  0  0  0  0  0  0  0  0  0  0
    2.0036   -0.3048   -0.5202 H   0  0  0  0  0  0  0  0  0  0  0  0
    0.4153    2.5107   -1.8165 H   0  0  0  0  0  0  0  0  0  0  0  0
    1.8287    1.9260   -0.9505 H   0  0  0  0  0  0  0  0  0  0  0  0
   -1.1559    2.0669    3.9971 H   0  0  0  0  0  0  0  0  0  0  0  0
   -1.3138    4.0931    5.3385 H   0  0  0  0  0  0  0  0  0  0  0  0
   -0.7414    6.2359    4.3905 H   0  0  0  0  0  0  0  0  0  0  0  0
    0.0135    6.4151    2.0740 H   0  0  0  0  0  0  0  0  0  0  0  0
    0.9158    5.9597    0.0313 H   0  0  0  0  0  0  0  0  0  0  0  0
    0.3104    4.9621   -1.3172 H   0  0  0  0  0  0  0  0  0  0  0  0
    4.2856    4.7355   -0.4473 H   0  0  0  0  0  0  0  0  0  0  0  0
    2.4237    5.3938    1.6903 H   0  0  0  0  0  0  0  0  0  0  0  0
    4.1542    5.7027    1.6552 H   0  0  0  0  0  0  0  0  0  0  0  0
    3.0259    2.9359    1.6940 H   0  0  0  0  0  0  0  0  0  0  0  0
    3.3995    3.8591    3.1649 H   0  0  0  0  0  0  0  0  0  0  0  0
    5.3793    3.1558    1.0437 H   0  0  0  0  0  0  0  0  0  0  0  0
    5.1477    2.3110    2.6017 H   0  0  0  0  0  0  0  0  0  0  0  0
    6.1071    5.1040    2.2239 H   0  0  0  0  0  0  0  0  0  0  0  0
    7.0384    3.6709    2.7549 H   0  0  0  0  0  0  0  0  0  0  0  0
    4.8803    5.0492    4.2751 H   0  0  0  0  0  0  0  0  0  0  0  0
    6.6296    5.0334    4.6136 H   0  0  0  0  0  0  0  0  0  0  0  0
    4.8081    2.6757    4.7452 H   0  0  0  0  0  0  0  0  0  0  0  0
    5.4770    3.5924    6.1138 H   0  0  0  0  0  0  0  0  0  0  0  0
    6.7213    1.6188    4.5409 H   0  0  0  0  0  0  0  0  0  0  0  0
    6.6594    4.5976    6.9437 H   0  0  0  0  0  0  0  0  0  0  0  0
    7.6500    6.4505    8.1382 H   0  0  0  0  0  0  0  0  0  0  0  0
    8.8420   10.3019   17.4017 H   0  0  0  0  0  0  0  0  0  0  0  0
   11.4722    7.1699   16.4414 H   0  0  0  0  0  0  0  0  0  0  0  0
    6.2602   10.1527   11.7767 H   0  0  0  0  0  0  0  0  0  0  0  0
    7.2929   11.9525   10.1071 H   0  0  0  0  0  0  0  0  0  0  0  0
    9.8994   11.2508   13.0927 H   0  0  0  0  0  0  0  0  0  0  0  0
    9.8851   12.4455    5.7014 H   0  0  0  0  0  0  0  0  0  0  0  0
    8.5310   15.6049    8.1328 H   0  0  0  0  0  0  0  0  0  0  0  0
   18.3413   10.9432    9.8663 H   0  0  0  0  0  0  0  0  0  0  0  0
   17.6939    6.8786    9.0072 H   0  0  0  0  0  0  0  0  0  0  0  0
   13.8827    7.9581    6.5210 H   0  0  0  0  0  0  0  0  0  0  0  0
   11.7083    6.6332    6.3787 H   0  0  0  0  0  0  0  0  0  0  0  0
   11.3787    9.1862    9.5883 H   0  0  0  0  0  0  0  0  0  0  0  0
   13.9657    9.5856   11.7979 H   0  0  0  0  0  0  0  0  0  0  0  0
   11.7503   10.6491   12.5726 H   0  0  0  0  0  0  0  0  0  0  0  0
    8.8953    5.8280   13.0858 H   0  0  0  0  0  0  0  0  0  0  0  0
    9.9531    4.8943   10.9386 H   0  0  0  0  0  0  0  0  0  0  0  0
   11.3849    4.5313    8.0301 H   0  0  0  0  0  0  0  0  0  0  0  0
   10.4156    2.7333    6.7354 H   0  0  0  0  0  0  0  0  0  0  0  0
  1  2  1  0  0  0  0
  1 92  1  0  0  0  0
  1 93  1  0  0  0  0
  1 94  1  0  0  0  0
  2  3  1  0  0  0  0
  3  4  1  0  0  0  0
  3 95  1  0  0  0  0
  3 96  1  0  0  0  0
  4  5  2  0  0  0  0
  4 12  1  0  0  0  0
  5  6  1  0  0  0  0
  6  7  1  0  0  0  0
  6 11  2  0  0  0  0
  7  8  2  0  0  0  0
  7 97  1  0  0  0  0
  8  9  1  0  0  0  0
  8 98  1  0  0  0  0
  9 10  2  0  0  0  0
  9 99  1  0  0  0  0
 10 11  1  0  0  0  0
 10100  1  0  0  0  0
 11 12  1  0  0  0  0
 12 13  1  0  0  0  0
 13 14  1  0  0  0  0
 13101  1  0  0  0  0
 13102  1  0  0  0  0
 14 15  2  0  0  0  0
 14 16  1  0  0  0  0
 16 17  1  0  0  0  0
 16103  1  0  0  0  0
 17 18  1  0  0  0  0
 17104  1  0  0  0  0
 17105  1  0  0  0  0
 18 19  1  0  0  0  0
 18106  1  0  0  0  0
 18107  1  0  0  0  0
 19 20  1  0  0  0  0
 19108  1  0  0  0  0
 19109  1  0  0  0  0
 20 21  1  0  0  0  0
 20110  1  0  0  0  0
 20111  1  0  0  0  0
 21 22  1  0  0  0  0
 21112  1  0  0  0  0
 21113  1  0  0  0  0
 22 23  1  0  0  0  0
 22114  1  0  0  0  0
 22115  1  0  0  0  0
 23 24  1  0  0  0  0
 23116  1  0  0  0  0
 24 25  2  0  0  0  0
 24 26  1  0  0  0  0
 26 27  1  0  0  0  0
 26 91  2  0  0  0  0
 27 28  2  0  0  0  0
 27117  1  0  0  0  0
 28 29  1  0  0  0  0
 28118  1  0  0  0  0
 29 30  1  0  0  0  0
 29 90  2  0  0  0  0
 30 31  1  0  0  0  0
 30 84  2  0  0  0  0
 31 32  2  0  0  0  0
 31 89  1  0  0  0  0
 32 33  1  0  0  0  0
 33 34  2  0  0  0  0
 33 88  1  0  0  0  0
 34 35  1  0  0  0  0
 34 47  1  0  0  0  0
 35 36  1  0  0  0  0
 35 45  2  0  0  0  0
 36 37  1  0  0  0  0
 36 38  2  0  0  0  0
 38 39  1  0  0  0  0
 38119  1  0  0  0  0
 39 40  1  0  0  0  0
 39 44  2  0  0  0  0
 40 41  2  0  0  0  0
 40 42  2  0  0  0  0
 40 43  1  0  0  0  0
 44 45  1  0  0  0  0
 44120  1  0  0  0  0
 45 46  1  0  0  0  0
 47 48  2  0  0  0  0
 47 51  1  0  0  0  0
 48 49  1  0  0  0  0
 48121  1  0  0  0  0
 49 50  2  0  0  0  0
 49122  1  0  0  0  0
 50 51  1  0  0  0  0
 50 52  1  0  0  0  0
 51123  1  0  0  0  0
 52 53  1  0  0  0  0
 52 65  2  0  0  0  0
 53 54  1  0  0  0  0
 53 63  2  0  0  0  0
 54 55  1  0  0  0  0
 54 56  2  0  0  0  0
 56 57  1  0  0  0  0
 56124  1  0  0  0  0
 57 58  1  0  0  0  0
 57 62  2  0  0  0  0
 58 59  2  0  0  0  0
 58 60  2  0  0  0  0
 58 61  1  0  0  0  0
 62 63  1  0  0  0  0
 62125  1  0  0  0  0
 63 64  1  0  0  0  0
 65 66  1  0  0  0  0
 65 87  1  0  0  0  0
 66 67  2  0  0  0  0
 67 68  1  0  0  0  0
 67 86  1  0  0  0  0
 68 69  1  0  0  0  0
 68 81  2  0  0  0  0
 69 70  1  0  0  0  0
 69 79  2  0  0  0  0
 70 71  1  0  0  0  0
 70 72  2  0  0  0  0
 72 73  1  0  0  0  0
 72126  1  0  0  0  0
 73 74  1  0  0  0  0
 73 78  2  0  0  0  0
 74 75  2  0  0  0  0
 74 76  2  0  0  0  0
 74 77  1  0  0  0  0
 78 79  1  0  0  0  0
 78127  1  0  0  0  0
 79 80  1  0  0  0  0
 81 82  1  0  0  0  0
 81 85  1  0  0  0  0
 82 83  2  0  0  0  0
 82128  1  0  0  0  0
 83 84  1  0  0  0  0
 83129  1  0  0  0  0
 84 85  1  0  0  0  0
 85130  1  0  0  0  0
 86 87  2  0  0  0  0
 86131  1  0  0  0  0
 87132  1  0  0  0  0
 88 89  2  0  0  0  0
 88133  1  0  0  0  0
 89134  1  0  0  0  0
 90 91  1  0  0  0  0
 90135  1  0  0  0  0
 91136  1  0  0  0  0
M  CHG  3  43  -1  61  -1  77  -1
M  END
$$$$
