4_0_6573
 OpenBabel04152301363D

141151  0  0  0  0  0  0  0  0999 V2000
    1.1255   -0.0732    0.2155 C   0  0  0  0  0  0  0  0  0  0  0  0
    0.4761   -1.4186   -0.0610 C   0  0  0  0  0  0  0  0  0  0  0  0
    0.5663   -2.4105    1.0545 C   0  0  0  0  0  0  0  0  0  0  0  0
    0.3188   -3.7013    0.9455 N   0  0  0  0  0  0  0  0  0  0  0  0
    0.4165   -4.2104    2.2133 C   0  0  0  0  0  0  0  0  0  0  0  0
    0.7722   -3.2368    3.1180 C   0  0  0  0  0  0  0  0  0  0  0  0
    1.0651   -3.2090    4.8383 S   0  0  0  0  0  0  0  0  0  0  0  0
    1.8980   -2.0478    5.0332 O   0  0  0  0  0  0  0  0  0  0  0  0
   -0.2466   -3.2889    5.4407 O   0  0  0  0  0  0  0  0  0  0  0  0
    1.9134   -4.5644    5.3181 N   0  0  0  0  0  0  0  0  0  0  0  0
    2.9624   -5.1426    4.4750 C   0  0  0  0  0  0  0  0  0  0  0  0
    4.2848   -4.4945    4.6376 C   0  0  0  0  0  0  0  0  0  0  0  0
    4.7503   -3.2011    4.6164 C   0  0  0  0  0  0  0  0  0  0  0  0
    6.1532   -3.2731    4.7881 C   0  0  0  0  0  0  0  0  0  0  0  0
    6.4993   -4.6116    4.8174 C   0  0  0  0  0  0  0  0  0  0  0  0
    7.7411   -5.3624    4.8853 C   0  0  0  0  0  0  0  0  0  0  0  0
    7.7819   -6.5626    5.1694 O   0  0  0  0  0  0  0  0  0  0  0  0
    8.9518   -4.7742    4.6016 N   0  0  0  0  0  0  0  0  0  0  0  0
    9.2773   -3.4245    4.1899 C   0  0  0  0  0  0  0  0  0  0  0  0
    9.6639   -2.5660    5.3956 C   0  0  0  0  0  0  0  0  0  0  0  0
   11.1694   -2.5916    5.6859 C   0  0  0  0  0  0  0  0  0  0  0  0
   12.0381   -1.9222    4.6118 C   0  0  0  0  0  0  0  0  0  0  0  0
   11.7176   -0.4494    4.3353 C   0  0  0  0  0  0  0  0  0  0  0  0
   11.9011    0.4774    5.5342 C   0  0  0  0  0  0  0  0  0  0  0  0
   13.2895    0.5290    5.9639 N   0  0  0  0  0  0  0  0  0  0  0  0
   14.1068    1.6185    6.1305 C   0  0  0  0  0  0  0  0  0  0  0  0
   15.3152    1.4597    6.2764 O   0  0  0  0  0  0  0  0  0  0  0  0
   13.5320    2.9806    6.1259 C   0  0  0  0  0  0  0  0  0  0  0  0
   14.1787    3.9870    5.4034 C   0  0  0  0  0  0  0  0  0  0  0  0
   13.6401    5.2754    5.3765 C   0  0  0  0  0  0  0  0  0  0  0  0
   12.4409    5.5564    6.0506 C   0  0  0  0  0  0  0  0  0  0  0  0
   11.8336    6.9095    6.0084 C   0  0  0  0  0  0  0  0  0  0  0  0
   11.7561    7.7388    7.2601 C   0  0  0  0  0  0  0  0  0  0  0  0
   11.1898    8.9031    7.4454 N   0  0  0  0  0  0  0  0  0  0  0  0
   11.3628    9.1982    8.7923 C   0  0  0  0  0  0  0  0  0  0  0  0
   10.9958   10.3129    9.4688 C   0  0  0  0  0  0  0  0  0  0  0  0
   11.3015   10.3602   10.9394 C   0  0  0  0  0  0  0  0  0  0  0  0
   12.6137   10.5218   11.4119 C   0  0  0  0  0  0  0  0  0  0  0  0
   13.6368   10.6114   10.5473 F   0  0  0  0  0  0  0  0  0  0  0  0
   12.8991   10.5421   12.7730 C   0  0  0  0  0  0  0  0  0  0  0  0
   11.8512   10.4220   13.6871 C   0  0  0  0  0  0  0  0  0  0  0  0
   12.2346   10.4349   15.4512 S   0  0  0  0  0  0  0  0  0  0  0  0
   12.7415    9.0800   15.6465 O   0  0  0  0  0  0  0  0  0  0  0  0
   13.2254   11.5018   15.5517 O   0  0  0  0  0  0  0  0  0  0  0  0
   10.9464   10.7201   16.0752 O   0  5  0  0  0  0  0  0  0  0  0  0
   10.5313   10.2970   13.2546 C   0  0  0  0  0  0  0  0  0  0  0  0
   10.2716   10.2550   11.8876 C   0  0  0  0  0  0  0  0  0  0  0  0
    8.9992   10.0992   11.4896 F   0  0  0  0  0  0  0  0  0  0  0  0
   10.3400   11.4435    8.8664 C   0  0  0  0  0  0  0  0  0  0  0  0
    9.9797   12.6443    9.4525 C   0  0  0  0  0  0  0  0  0  0  0  0
    9.3483   13.4321    8.4828 C   0  0  0  0  0  0  0  0  0  0  0  0
    9.3446   12.7344    7.2854 C   0  0  0  0  0  0  0  0  0  0  0  0
    9.9501   11.5147    7.5370 N   0  0  0  0  0  0  0  0  0  0  0  0
    8.8267   13.1517    6.0068 C   0  0  0  0  0  0  0  0  0  0  0  0
    8.2247   14.5239    5.9134 C   0  0  0  0  0  0  0  0  0  0  0  0
    6.8359   14.7132    5.8576 C   0  0  0  0  0  0  0  0  0  0  0  0
    6.0104   13.6551    5.8288 F   0  0  0  0  0  0  0  0  0  0  0  0
    6.2800   15.9872    5.8089 C   0  0  0  0  0  0  0  0  0  0  0  0
    7.1260   17.0980    5.8335 C   0  0  0  0  0  0  0  0  0  0  0  0
    6.3944   18.7485    5.8088 S   0  0  0  0  0  0  0  0  0  0  0  0
    6.0486   18.8944    4.3989 O   0  0  0  0  0  0  0  0  0  0  0  0
    5.2679   18.6082    6.7266 O   0  0  0  0  0  0  0  0  0  0  0  0
    7.4772   19.6050    6.2833 O   0  5  0  0  0  0  0  0  0  0  0  0
    8.5105   16.9461    5.9058 C   0  0  0  0  0  0  0  0  0  0  0  0
    9.0456   15.6625    5.9337 C   0  0  0  0  0  0  0  0  0  0  0  0
   10.3803   15.5327    5.9944 F   0  0  0  0  0  0  0  0  0  0  0  0
    8.8551   12.4074    4.8741 C   0  0  0  0  0  0  0  0  0  0  0  0
    9.3709   11.1316    4.6789 N   0  0  0  0  0  0  0  0  0  0  0  0
    9.1540   10.8469    3.4170 C   0  0  0  0  0  0  0  0  0  0  0  0
    9.5234    9.6055    2.6545 C   0  0  0  0  0  0  0  0  0  0  0  0
    9.1745    9.4568    1.2187 C   0  0  0  0  0  0  0  0  0  0  0  0
    9.8644   10.1783    0.2340 C   0  0  0  0  0  0  0  0  0  0  0  0
   10.8271   11.0431    0.5881 F   0  0  0  0  0  0  0  0  0  0  0  0
    9.5700   10.0301   -1.1170 C   0  0  0  0  0  0  0  0  0  0  0  0
    8.5736    9.1292   -1.4973 C   0  0  0  0  0  0  0  0  0  0  0  0
    8.2436    8.8896   -3.2570 S   0  0  0  0  0  0  0  0  0  0  0  0
    7.4685   10.0828   -3.5749 O   0  0  0  0  0  0  0  0  0  0  0  0
    9.5896    8.8325   -3.8190 O   0  0  0  0  0  0  0  0  0  0  0  0
    7.5077    7.6289   -3.2884 O   0  5  0  0  0  0  0  0  0  0  0  0
    7.8729    8.3884   -0.5457 C   0  0  0  0  0  0  0  0  0  0  0  0
    8.1728    8.5680    0.8009 C   0  0  0  0  0  0  0  0  0  0  0  0
    7.4973    7.8420    1.7053 F   0  0  0  0  0  0  0  0  0  0  0  0
   10.2062    8.6272    3.2796 C   0  0  0  0  0  0  0  0  0  0  0  0
   10.6439    7.3765    2.6667 C   0  0  0  0  0  0  0  0  0  0  0  0
   11.2636    6.6275    3.5933 C   0  0  0  0  0  0  0  0  0  0  0  0
   11.2912    7.3602    4.8610 C   0  0  0  0  0  0  0  0  0  0  0  0
   10.6452    8.5369    4.5788 N   0  0  0  0  0  0  0  0  0  0  0  0
    8.4550   11.9026    2.6717 C   0  0  0  0  0  0  0  0  0  0  0  0
    8.3223   12.8423    3.5986 C   0  0  0  0  0  0  0  0  0  0  0  0
   12.0529    8.0729    9.3858 C   0  0  0  0  0  0  0  0  0  0  0  0
   12.3735    7.1709    8.4692 C   0  0  0  0  0  0  0  0  0  0  0  0
   11.8112    4.5411    6.7864 C   0  0  0  0  0  0  0  0  0  0  0  0
   12.3764    3.2706    6.8581 C   0  0  0  0  0  0  0  0  0  0  0  0
    5.3399   -5.3492    4.7672 O   0  0  0  0  0  0  0  0  0  0  0  0
    0.8650   -2.0937    2.3565 N   0  0  0  0  0  0  0  0  0  0  0  0
    1.0078    0.5617   -0.6377 H   0  0  0  0  0  0  0  0  0  0  0  0
    2.1674   -0.2142    0.4141 H   0  0  0  0  0  0  0  0  0  0  0  0
    0.6587    0.3804    1.0648 H   0  0  0  0  0  0  0  0  0  0  0  0
    0.9493   -1.8440   -0.9213 H   0  0  0  0  0  0  0  0  0  0  0  0
   -0.5665   -1.2221   -0.2000 H   0  0  0  0  0  0  0  0  0  0  0  0
    0.2452   -5.1981    2.4586 H   0  0  0  0  0  0  0  0  0  0  0  0
    1.2227   -5.3004    5.4652 H   0  0  0  0  0  0  0  0  0  0  0  0
    2.6636   -5.0477    3.4520 H   0  0  0  0  0  0  0  0  0  0  0  0
    3.0764   -6.1633    4.7751 H   0  0  0  0  0  0  0  0  0  0  0  0
    4.1866   -2.3447    4.4983 H   0  0  0  0  0  0  0  0  0  0  0  0
    6.7995   -2.4733    4.8754 H   0  0  0  0  0  0  0  0  0  0  0  0
    9.7285   -5.3720    4.6941 H   0  0  0  0  0  0  0  0  0  0  0  0
    8.4263   -2.9899    3.7085 H   0  0  0  0  0  0  0  0  0  0  0  0
   10.1077   -3.4627    3.5162 H   0  0  0  0  0  0  0  0  0  0  0  0
    9.1436   -2.9315    6.2562 H   0  0  0  0  0  0  0  0  0  0  0  0
    9.3968   -1.5548    5.1696 H   0  0  0  0  0  0  0  0  0  0  0  0
   11.4752   -3.6132    5.7737 H   0  0  0  0  0  0  0  0  0  0  0  0
   11.3145   -2.0316    6.5861 H   0  0  0  0  0  0  0  0  0  0  0  0
   11.9117   -2.4652    3.6985 H   0  0  0  0  0  0  0  0  0  0  0  0
   13.0401   -1.9419    4.9867 H   0  0  0  0  0  0  0  0  0  0  0  0
   10.6985   -0.3840    4.0160 H   0  0  0  0  0  0  0  0  0  0  0  0
   12.4129   -0.1227    3.5905 H   0  0  0  0  0  0  0  0  0  0  0  0
   11.3000    0.1203    6.3442 H   0  0  0  0  0  0  0  0  0  0  0  0
   11.6041    1.4634    5.2434 H   0  0  0  0  0  0  0  0  0  0  0  0
   13.7019   -0.3423    6.1638 H   0  0  0  0  0  0  0  0  0  0  0  0
   15.0506    3.7791    4.8919 H   0  0  0  0  0  0  0  0  0  0  0  0
   14.1258    6.0244    4.8587 H   0  0  0  0  0  0  0  0  0  0  0  0
   13.8718   10.6445   13.1023 H   0  0  0  0  0  0  0  0  0  0  0  0
    9.7595   10.2366   13.9370 H   0  0  0  0  0  0  0  0  0  0  0  0
   10.1475   12.9126   10.4348 H   0  0  0  0  0  0  0  0  0  0  0  0
    8.9526   14.3731    8.6340 H   0  0  0  0  0  0  0  0  0  0  0  0
   10.0842   10.8027    6.8704 H   0  0  0  0  0  0  0  0  0  0  0  0
    5.2567   16.1099    5.7553 H   0  0  0  0  0  0  0  0  0  0  0  0
    9.1278   17.7725    5.9381 H   0  0  0  0  0  0  0  0  0  0  0  0
   10.0802   10.5777   -1.8275 H   0  0  0  0  0  0  0  0  0  0  0  0
    7.1439    7.7180   -0.8357 H   0  0  0  0  0  0  0  0  0  0  0  0
   10.5002    7.1107    1.6799 H   0  0  0  0  0  0  0  0  0  0  0  0
   11.6573    5.6864    3.4370 H   0  0  0  0  0  0  0  0  0  0  0  0
   10.5089    9.2496    5.2442 H   0  0  0  0  0  0  0  0  0  0  0  0
    8.1480   11.9109    1.6864 H   0  0  0  0  0  0  0  0  0  0  0  0
    7.8938   13.7663    3.4323 H   0  0  0  0  0  0  0  0  0  0  0  0
   12.2673    7.9844   10.3914 H   0  0  0  0  0  0  0  0  0  0  0  0
   12.9145    6.2986    8.5756 H   0  0  0  0  0  0  0  0  0  0  0  0
   10.9246    4.7370    7.2769 H   0  0  0  0  0  0  0  0  0  0  0  0
   11.9435    2.5446    7.4502 H   0  0  0  0  0  0  0  0  0  0  0  0
    1.1053   -1.1990    2.6897 H   0  0  0  0  0  0  0  0  0  0  0  0
  1  2  1  0  0  0  0
  1 96  1  0  0  0  0
  1 97  1  0  0  0  0
  1 98  1  0  0  0  0
  2  3  1  0  0  0  0
  2 99  1  0  0  0  0
  2100  1  0  0  0  0
  3  4  2  0  0  0  0
  3 95  1  0  0  0  0
  4  5  1  0  0  0  0
  5  6  2  0  0  0  0
  5101  1  0  0  0  0
  6  7  1  0  0  0  0
  6 95  1  0  0  0  0
  7  8  2  0  0  0  0
  7  9  2  0  0  0  0
  7 10  1  0  0  0  0
 10 11  1  0  0  0  0
 10102  1  0  0  0  0
 11 12  1  0  0  0  0
 11103  1  0  0  0  0
 11104  1  0  0  0  0
 12 13  2  0  0  0  0
 12 94  1  0  0  0  0
 13 14  1  0  0  0  0
 13105  1  0  0  0  0
 14 15  2  0  0  0  0
 14106  1  0  0  0  0
 15 16  1  0  0  0  0
 15 94  1  0  0  0  0
 16 17  2  0  0  0  0
 16 18  1  0  0  0  0
 18 19  1  0  0  0  0
 18107  1  0  0  0  0
 19 20  1  0  0  0  0
 19108  1  0  0  0  0
 19109  1  0  0  0  0
 20 21  1  0  0  0  0
 20110  1  0  0  0  0
 20111  1  0  0  0  0
 21 22  1  0  0  0  0
 21112  1  0  0  0  0
 21113  1  0  0  0  0
 22 23  1  0  0  0  0
 22114  1  0  0  0  0
 22115  1  0  0  0  0
 23 24  1  0  0  0  0
 23116  1  0  0  0  0
 23117  1  0  0  0  0
 24 25  1  0  0  0  0
 24118  1  0  0  0  0
 24119  1  0  0  0  0
 25 26  1  0  0  0  0
 25120  1  0  0  0  0
 26 27  2  0  0  0  0
 26 28  1  0  0  0  0
 28 29  1  0  0  0  0
 28 93  2  0  0  0  0
 29 30  2  0  0  0  0
 29121  1  0  0  0  0
 30 31  1  0  0  0  0
 30122  1  0  0  0  0
 31 32  1  0  0  0  0
 31 92  2  0  0  0  0
 32 33  1  0  0  0  0
 32 86  2  0  0  0  0
 33 34  2  0  0  0  0
 33 91  1  0  0  0  0
 34 35  1  0  0  0  0
 35 36  2  0  0  0  0
 35 90  1  0  0  0  0
 36 37  1  0  0  0  0
 36 49  1  0  0  0  0
 37 38  1  0  0  0  0
 37 47  2  0  0  0  0
 38 39  1  0  0  0  0
 38 40  2  0  0  0  0
 40 41  1  0  0  0  0
 40123  1  0  0  0  0
 41 42  1  0  0  0  0
 41 46  2  0  0  0  0
 42 43  2  0  0  0  0
 42 44  2  0  0  0  0
 42 45  1  0  0  0  0
 46 47  1  0  0  0  0
 46124  1  0  0  0  0
 47 48  1  0  0  0  0
 49 50  2  0  0  0  0
 49 53  1  0  0  0  0
 50 51  1  0  0  0  0
 50125  1  0  0  0  0
 51 52  2  0  0  0  0
 51126  1  0  0  0  0
 52 53  1  0  0  0  0
 52 54  1  0  0  0  0
 53127  1  0  0  0  0
 54 55  1  0  0  0  0
 54 67  2  0  0  0  0
 55 56  1  0  0  0  0
 55 65  2  0  0  0  0
 56 57  1  0  0  0  0
 56 58  2  0  0  0  0
 58 59  1  0  0  0  0
 58128  1  0  0  0  0
 59 60  1  0  0  0  0
 59 64  2  0  0  0  0
 60 61  2  0  0  0  0
 60 62  2  0  0  0  0
 60 63  1  0  0  0  0
 64 65  1  0  0  0  0
 64129  1  0  0  0  0
 65 66  1  0  0  0  0
 67 68  1  0  0  0  0
 67 89  1  0  0  0  0
 68 69  2  0  0  0  0
 69 70  1  0  0  0  0
 69 88  1  0  0  0  0
 70 71  1  0  0  0  0
 70 83  2  0  0  0  0
 71 72  1  0  0  0  0
 71 81  2  0  0  0  0
 72 73  1  0  0  0  0
 72 74  2  0  0  0  0
 74 75  1  0  0  0  0
 74130  1  0  0  0  0
 75 76  1  0  0  0  0
 75 80  2  0  0  0  0
 76 77  2  0  0  0  0
 76 78  2  0  0  0  0
 76 79  1  0  0  0  0
 80 81  1  0  0  0  0
 80131  1  0  0  0  0
 81 82  1  0  0  0  0
 83 84  1  0  0  0  0
 83 87  1  0  0  0  0
 84 85  2  0  0  0  0
 84132  1  0  0  0  0
 85 86  1  0  0  0  0
 85133  1  0  0  0  0
 86 87  1  0  0  0  0
 87134  1  0  0  0  0
 88 89  2  0  0  0  0
 88135  1  0  0  0  0
 89136  1  0  0  0  0
 90 91  2  0  0  0  0
 90137  1  0  0  0  0
 91138  1  0  0  0  0
 92 93  1  0  0  0  0
 92139  1  0  0  0  0
 93140  1  0  0  0  0
 95141  1  0  0  0  0
M  CHG  3  45  -1  63  -1  79  -1
M  END
$$$$
