4_0_2373
 OpenBabel04152301363D

155165  0  0  1  0  0  0  0  0999 V2000
    0.7342    0.1506    0.1009 C   0  0  0  0  0  0  0  0  0  0  0  0
    0.7125    0.5642   -1.3668 C   0  0  0  0  0  0  0  0  0  0  0  0
    1.2597   -0.4716   -2.2358 N   0  0  0  0  0  0  0  0  0  0  0  0
    0.3078   -1.3359   -2.9570 C   0  0  0  0  0  0  0  0  0  0  0  0
    0.1856   -1.0243   -4.4203 C   0  0  0  0  0  0  0  0  0  0  0  0
    0.1987    0.2037   -5.0583 C   0  0  0  0  0  0  0  0  0  0  0  0
    0.1757   -0.0485   -6.3997 N   0  0  0  0  0  0  0  0  0  0  0  0
    0.3610    0.9088   -7.4744 C   0  0  0  0  0  0  0  0  0  0  0  0
    1.7348    0.7686   -8.1072 C   0  0  0  0  0  0  0  0  0  0  0  0
    0.0670   -1.3572   -6.6954 N   0  0  0  0  0  0  0  0  0  0  0  0
    0.0559   -1.9593   -5.4998 C   0  0  0  0  0  0  0  0  0  0  0  0
   -0.0211   -3.4419   -5.4632 C   0  0  0  0  0  0  0  0  0  0  0  0
    2.6490   -0.7026   -2.1596 C   0  0  0  0  0  0  0  0  0  0  0  0
    3.3807   -0.1389   -1.3488 O   0  0  0  0  0  0  0  0  0  0  0  0
    3.2018   -1.6431   -3.1311 C   0  0  0  0  0  0  0  0  0  0  0  0
    3.2203   -1.4205   -4.5203 C   0  0  0  0  0  0  0  0  0  0  0  0
    3.4222   -2.6665   -5.0329 C   0  0  0  0  0  0  0  0  0  0  0  0
    3.9616   -3.4081   -4.0366 N   0  0  0  0  0  0  0  0  0  0  0  0
    4.7153   -4.6530   -4.1388 C   0  0  1  0  0  0  0  0  0  0  0  0
    3.8589   -5.9128   -4.1662 C   0  0  0  0  0  0  0  0  0  0  0  0
    5.8159   -4.6251   -5.2072 C   0  0  0  0  0  0  0  0  0  0  0  0
    7.0064   -4.5896   -4.8657 O   0  0  0  0  0  0  0  0  0  0  0  0
    5.6018   -4.7068   -6.5517 N   0  0  0  0  0  0  0  0  0  0  0  0
    4.3959   -4.7286   -7.3588 C   0  0  0  0  0  0  0  0  0  0  0  0
    4.2164   -3.4189   -8.1448 C   0  0  0  0  0  0  0  0  0  0  0  0
    4.9618   -3.3452   -9.4709 C   0  0  0  0  0  0  0  0  0  0  0  0
    4.6616   -4.4859  -10.4473 C   0  0  0  0  0  0  0  0  0  0  0  0
    3.1763   -4.7529  -10.7393 C   0  0  0  0  0  0  0  0  0  0  0  0
    2.5053   -3.6220  -11.5000 C   0  0  0  0  0  0  0  0  0  0  0  0
    3.0879   -3.4433  -12.8355 N   0  0  0  0  0  0  0  0  0  0  0  0
    2.7178   -2.5687  -13.8356 C   0  0  0  0  0  0  0  0  0  0  0  0
    3.0801   -2.7534  -14.9975 O   0  0  0  0  0  0  0  0  0  0  0  0
    1.9050   -1.3972  -13.4840 C   0  0  0  0  0  0  0  0  0  0  0  0
    0.9033   -0.8815  -14.3168 C   0  0  0  0  0  0  0  0  0  0  0  0
    0.1514    0.2079  -13.8743 C   0  0  0  0  0  0  0  0  0  0  0  0
    0.3665    0.6836  -12.5796 C   0  0  0  0  0  0  0  0  0  0  0  0
   -0.3486    1.8032  -11.9874 C   0  0  0  0  0  0  0  0  0  0  0  0
   -1.7656    1.5135  -11.6320 C   0  0  0  0  0  0  0  0  0  0  0  0
   -2.8341    2.0941  -12.0664 N   0  0  0  0  0  0  0  0  0  0  0  0
   -3.8977    1.4985  -11.3879 C   0  0  0  0  0  0  0  0  0  0  0  0
   -5.0607    2.1694  -11.1515 C   0  0  0  0  0  0  0  0  0  0  0  0
   -5.9647    1.9577   -9.9570 C   0  0  0  0  0  0  0  0  0  0  0  0
   -7.2070    2.6265   -9.9091 C   0  0  0  0  0  0  0  0  0  0  0  0
   -7.6963    3.2421  -10.9974 F   0  0  0  0  0  0  0  0  0  0  0  0
   -7.9472    2.7520   -8.7323 C   0  0  0  0  0  0  0  0  0  0  0  0
   -7.4803    2.1535   -7.5671 C   0  0  0  0  0  0  0  0  0  0  0  0
   -8.3644    2.4132   -6.0205 S   0  0  0  0  0  0  0  0  0  0  0  0
   -8.1134    3.8292   -5.7779 O   0  0  0  0  0  0  0  0  0  0  0  0
   -9.7305    2.0575   -6.3890 O   0  0  0  0  0  0  0  0  0  0  0  0
   -7.7082    1.4895   -5.0996 O   0  5  0  0  0  0  0  0  0  0  0  0
   -6.3130    1.4103   -7.5790 C   0  0  0  0  0  0  0  0  0  0  0  0
   -5.5614    1.3492   -8.7474 C   0  0  0  0  0  0  0  0  0  0  0  0
   -4.3733    0.7524   -8.6024 F   0  0  0  0  0  0  0  0  0  0  0  0
   -5.1344    3.3595  -11.9610 C   0  0  0  0  0  0  0  0  0  0  0  0
   -5.1485    3.6005  -13.3207 C   0  0  0  0  0  0  0  0  0  0  0  0
   -4.3378    4.7591  -13.4934 C   0  0  0  0  0  0  0  0  0  0  0  0
   -3.9483    5.2107  -12.2300 C   0  0  0  0  0  0  0  0  0  0  0  0
   -4.7877    4.5513  -11.3682 N   0  0  0  0  0  0  0  0  0  0  0  0
   -2.8752    6.0887  -11.8109 C   0  0  0  0  0  0  0  0  0  0  0  0
   -2.1814    6.8440  -12.9189 C   0  0  0  0  0  0  0  0  0  0  0  0
   -0.9345    6.4857  -13.4637 C   0  0  0  0  0  0  0  0  0  0  0  0
   -0.2038    5.5034  -12.9216 F   0  0  0  0  0  0  0  0  0  0  0  0
   -0.4446    7.0708  -14.6342 C   0  0  0  0  0  0  0  0  0  0  0  0
   -1.2264    8.0154  -15.2979 C   0  0  0  0  0  0  0  0  0  0  0  0
   -0.6571    8.6789  -16.8790 S   0  0  0  0  0  0  0  0  0  0  0  0
    0.4401    9.5483  -16.4684 O   0  0  0  0  0  0  0  0  0  0  0  0
   -0.2726    7.4743  -17.6094 O   0  0  0  0  0  0  0  0  0  0  0  0
   -1.8349    9.3652  -17.4045 O   0  5  0  0  0  0  0  0  0  0  0  0
   -2.4669    8.3925  -14.7887 C   0  0  0  0  0  0  0  0  0  0  0  0
   -2.9209    7.8172  -13.6055 C   0  0  0  0  0  0  0  0  0  0  0  0
   -4.1440    8.1600  -13.1688 F   0  0  0  0  0  0  0  0  0  0  0  0
   -2.3370    6.1173  -10.5553 C   0  0  0  0  0  0  0  0  0  0  0  0
   -1.0668    6.6311  -10.3238 N   0  0  0  0  0  0  0  0  0  0  0  0
   -0.6359    6.0087   -9.2571 C   0  0  0  0  0  0  0  0  0  0  0  0
    0.7644    5.5243   -9.0980 C   0  0  0  0  0  0  0  0  0  0  0  0
    1.5713    5.7627   -7.8675 C   0  0  0  0  0  0  0  0  0  0  0  0
    1.4755    6.9560   -7.1314 C   0  0  0  0  0  0  0  0  0  0  0  0
    0.8217    8.0095   -7.6431 F   0  0  0  0  0  0  0  0  0  0  0  0
    1.9938    7.0798   -5.8337 C   0  0  0  0  0  0  0  0  0  0  0  0
    2.6279    5.9878   -5.2410 C   0  0  0  0  0  0  0  0  0  0  0  0
    3.1437    6.0786   -3.5086 S   0  0  0  0  0  0  0  0  0  0  0  0
    4.2526    7.0234   -3.5746 O   0  0  0  0  0  0  0  0  0  0  0  0
    1.9311    6.5578   -2.8541 O   0  0  0  0  0  0  0  0  0  0  0  0
    3.5101    4.6995   -3.1994 O   0  5  0  0  0  0  0  0  0  0  0  0
    2.7825    4.8028   -5.9462 C   0  0  0  0  0  0  0  0  0  0  0  0
    2.2582    4.7075   -7.2343 C   0  0  0  0  0  0  0  0  0  0  0  0
    2.3631    3.5104   -7.8227 F   0  0  0  0  0  0  0  0  0  0  0  0
    0.9465    4.5703  -10.0490 C   0  0  0  0  0  0  0  0  0  0  0  0
    2.1605    3.9564  -10.5463 C   0  0  0  0  0  0  0  0  0  0  0  0
    1.8251    3.0142  -11.4552 C   0  0  0  0  0  0  0  0  0  0  0  0
    0.3608    2.8418  -11.4817 C   0  0  0  0  0  0  0  0  0  0  0  0
   -0.0651    3.8950  -10.7362 N   0  0  0  0  0  0  0  0  0  0  0  0
   -1.6643    5.3517   -8.4631 C   0  0  0  0  0  0  0  0  0  0  0  0
   -2.6720    5.3752   -9.3408 C   0  0  0  0  0  0  0  0  0  0  0  0
   -3.3746    0.2936  -10.8063 C   0  0  0  0  0  0  0  0  0  0  0  0
   -2.0417    0.3284  -10.7966 C   0  0  0  0  0  0  0  0  0  0  0  0
    1.2953    0.0865  -11.7418 C   0  0  0  0  0  0  0  0  0  0  0  0
    2.1758   -0.8093  -12.2586 C   0  0  0  0  0  0  0  0  0  0  0  0
    3.6766   -2.8725   -2.8249 N   0  0  0  0  0  0  0  0  0  0  0  0
    0.3251    0.9376    0.6993 H   0  0  0  0  0  0  0  0  0  0  0  0
    1.7429   -0.0397    0.4030 H   0  0  0  0  0  0  0  0  0  0  0  0
    0.1498   -0.7363    0.2302 H   0  0  0  0  0  0  0  0  0  0  0  0
    1.2938    1.4550   -1.4831 H   0  0  0  0  0  0  0  0  0  0  0  0
   -0.3068    0.7269   -1.6487 H   0  0  0  0  0  0  0  0  0  0  0  0
   -0.6565   -1.2224   -2.5074 H   0  0  0  0  0  0  0  0  0  0  0  0
    0.6821   -2.3357   -2.8843 H   0  0  0  0  0  0  0  0  0  0  0  0
    0.2215    1.1315   -4.6069 H   0  0  0  0  0  0  0  0  0  0  0  0
    0.2576    1.8986   -7.0813 H   0  0  0  0  0  0  0  0  0  0  0  0
   -0.3777    0.7209   -8.2254 H   0  0  0  0  0  0  0  0  0  0  0  0
    2.4877    0.9534   -7.3697 H   0  0  0  0  0  0  0  0  0  0  0  0
    1.8345    1.4761   -8.9037 H   0  0  0  0  0  0  0  0  0  0  0  0
    1.8499   -0.2224   -8.4939 H   0  0  0  0  0  0  0  0  0  0  0  0
   -0.0211   -3.7740   -4.4461 H   0  0  0  0  0  0  0  0  0  0  0  0
    0.8235   -3.8556   -5.9735 H   0  0  0  0  0  0  0  0  0  0  0  0
   -0.9212   -3.7643   -5.9437 H   0  0  0  0  0  0  0  0  0  0  0  0
    3.1081   -0.5291   -5.0281 H   0  0  0  0  0  0  0  0  0  0  0  0
    3.2066   -2.9827   -5.9913 H   0  0  0  0  0  0  0  0  0  0  0  0
    5.2377   -4.7176   -3.2072 H   0  0  0  0  0  0  0  0  0  0  0  0
    3.2914   -5.9386   -5.0729 H   0  0  0  0  0  0  0  0  0  0  0  0
    3.1931   -5.9097   -3.3286 H   0  0  0  0  0  0  0  0  0  0  0  0
    4.4908   -6.7748   -4.1163 H   0  0  0  0  0  0  0  0  0  0  0  0
    6.4307   -4.7620   -7.0801 H   0  0  0  0  0  0  0  0  0  0  0  0
    3.5510   -4.8669   -6.7169 H   0  0  0  0  0  0  0  0  0  0  0  0
    4.4780   -5.5316   -8.0612 H   0  0  0  0  0  0  0  0  0  0  0  0
    4.5592   -2.6143   -7.5283 H   0  0  0  0  0  0  0  0  0  0  0  0
    3.1760   -3.3613   -8.3879 H   0  0  0  0  0  0  0  0  0  0  0  0
    6.0113   -3.3544   -9.2625 H   0  0  0  0  0  0  0  0  0  0  0  0
    4.6311   -2.4473   -9.9499 H   0  0  0  0  0  0  0  0  0  0  0  0
    5.0813   -5.3826  -10.0414 H   0  0  0  0  0  0  0  0  0  0  0  0
    5.0884   -4.1847  -11.3811 H   0  0  0  0  0  0  0  0  0  0  0  0
    2.6653   -4.8876   -9.8089 H   0  0  0  0  0  0  0  0  0  0  0  0
    3.1245   -5.6263  -11.3553 H   0  0  0  0  0  0  0  0  0  0  0  0
    2.6232   -2.7141  -10.9462 H   0  0  0  0  0  0  0  0  0  0  0  0
    1.4708   -3.8682  -11.6183 H   0  0  0  0  0  0  0  0  0  0  0  0
    3.8496   -4.0301  -13.0469 H   0  0  0  0  0  0  0  0  0  0  0  0
    0.7243   -1.3005  -15.2428 H   0  0  0  0  0  0  0  0  0  0  0  0
   -0.5477    0.6517  -14.4902 H   0  0  0  0  0  0  0  0  0  0  0  0
   -8.8318    3.2835   -8.7270 H   0  0  0  0  0  0  0  0  0  0  0  0
   -6.0043    0.9080   -6.7320 H   0  0  0  0  0  0  0  0  0  0  0  0
   -5.6384    3.0603  -14.0509 H   0  0  0  0  0  0  0  0  0  0  0  0
   -4.0824    5.1902  -14.3956 H   0  0  0  0  0  0  0  0  0  0  0  0
   -5.0871    4.8723  -10.4870 H   0  0  0  0  0  0  0  0  0  0  0  0
    0.4829    6.8075  -15.0023 H   0  0  0  0  0  0  0  0  0  0  0  0
   -3.0432    9.0911  -15.2836 H   0  0  0  0  0  0  0  0  0  0  0  0
    1.9067    7.9716   -5.3217 H   0  0  0  0  0  0  0  0  0  0  0  0
    3.2788    4.0031   -5.5229 H   0  0  0  0  0  0  0  0  0  0  0  0
    3.1207    4.1980  -10.2553 H   0  0  0  0  0  0  0  0  0  0  0  0
    2.4941    2.4930  -12.0432 H   0  0  0  0  0  0  0  0  0  0  0  0
   -1.0115    4.1611  -10.6845 H   0  0  0  0  0  0  0  0  0  0  0  0
   -1.6263    4.9770   -7.5023 H   0  0  0  0  0  0  0  0  0  0  0  0
   -3.5843    4.9205   -9.1794 H   0  0  0  0  0  0  0  0  0  0  0  0
   -3.9476   -0.4862  -10.4478 H   0  0  0  0  0  0  0  0  0  0  0  0
   -1.3772   -0.3069  -10.3278 H   0  0  0  0  0  0  0  0  0  0  0  0
    1.3176    0.3199  -10.7368 H   0  0  0  0  0  0  0  0  0  0  0  0
    3.0375   -1.0496  -11.7441 H   0  0  0  0  0  0  0  0  0  0  0  0
  1  2  1  0  0  0  0
  1100  1  0  0  0  0
  1101  1  0  0  0  0
  1102  1  0  0  0  0
  2  3  1  0  0  0  0
  2103  1  0  0  0  0
  2104  1  0  0  0  0
  3  4  1  0  0  0  0
  3 13  1  0  0  0  0
  4  5  1  0  0  0  0
  4105  1  0  0  0  0
  4106  1  0  0  0  0
  5  6  2  0  0  0  0
  5 11  1  0  0  0  0
  6  7  1  0  0  0  0
  6107  1  0  0  0  0
  7  8  1  0  0  0  0
  7 10  1  0  0  0  0
  8  9  1  0  0  0  0
  8108  1  0  0  0  0
  8109  1  0  0  0  0
  9110  1  0  0  0  0
  9111  1  0  0  0  0
  9112  1  0  0  0  0
 10 11  2  0  0  0  0
 11 12  1  0  0  0  0
 12113  1  0  0  0  0
 12114  1  0  0  0  0
 12115  1  0  0  0  0
 13 14  2  0  0  0  0
 13 15  1  0  0  0  0
 15 16  1  0  0  0  0
 15 99  2  0  0  0  0
 16 17  2  0  0  0  0
 16116  1  0  0  0  0
 17 18  1  0  0  0  0
 17117  1  0  0  0  0
 18 19  1  0  0  0  0
 18 99  1  0  0  0  0
 19 20  1  0  0  0  0
 19 21  1  0  0  0  0
 19118  1  1  0  0  0
 20119  1  0  0  0  0
 20120  1  0  0  0  0
 20121  1  0  0  0  0
 21 22  2  0  0  0  0
 21 23  1  0  0  0  0
 23 24  1  0  0  0  0
 23122  1  0  0  0  0
 24 25  1  0  0  0  0
 24123  1  0  0  0  0
 24124  1  0  0  0  0
 25 26  1  0  0  0  0
 25125  1  0  0  0  0
 25126  1  0  0  0  0
 26 27  1  0  0  0  0
 26127  1  0  0  0  0
 26128  1  0  0  0  0
 27 28  1  0  0  0  0
 27129  1  0  0  0  0
 27130  1  0  0  0  0
 28 29  1  0  0  0  0
 28131  1  0  0  0  0
 28132  1  0  0  0  0
 29 30  1  0  0  0  0
 29133  1  0  0  0  0
 29134  1  0  0  0  0
 30 31  1  0  0  0  0
 30135  1  0  0  0  0
 31 32  2  0  0  0  0
 31 33  1  0  0  0  0
 33 34  1  0  0  0  0
 33 98  2  0  0  0  0
 34 35  2  0  0  0  0
 34136  1  0  0  0  0
 35 36  1  0  0  0  0
 35137  1  0  0  0  0
 36 37  1  0  0  0  0
 36 97  2  0  0  0  0
 37 38  1  0  0  0  0
 37 91  2  0  0  0  0
 38 39  2  0  0  0  0
 38 96  1  0  0  0  0
 39 40  1  0  0  0  0
 40 41  2  0  0  0  0
 40 95  1  0  0  0  0
 41 42  1  0  0  0  0
 41 54  1  0  0  0  0
 42 43  1  0  0  0  0
 42 52  2  0  0  0  0
 43 44  1  0  0  0  0
 43 45  2  0  0  0  0
 45 46  1  0  0  0  0
 45138  1  0  0  0  0
 46 47  1  0  0  0  0
 46 51  2  0  0  0  0
 47 48  2  0  0  0  0
 47 49  2  0  0  0  0
 47 50  1  0  0  0  0
 51 52  1  0  0  0  0
 51139  1  0  0  0  0
 52 53  1  0  0  0  0
 54 55  2  0  0  0  0
 54 58  1  0  0  0  0
 55 56  1  0  0  0  0
 55140  1  0  0  0  0
 56 57  2  0  0  0  0
 56141  1  0  0  0  0
 57 58  1  0  0  0  0
 57 59  1  0  0  0  0
 58142  1  0  0  0  0
 59 60  1  0  0  0  0
 59 72  2  0  0  0  0
 60 61  1  0  0  0  0
 60 70  2  0  0  0  0
 61 62  1  0  0  0  0
 61 63  2  0  0  0  0
 63 64  1  0  0  0  0
 63143  1  0  0  0  0
 64 65  1  0  0  0  0
 64 69  2  0  0  0  0
 65 66  2  0  0  0  0
 65 67  2  0  0  0  0
 65 68  1  0  0  0  0
 69 70  1  0  0  0  0
 69144  1  0  0  0  0
 70 71  1  0  0  0  0
 72 73  1  0  0  0  0
 72 94  1  0  0  0  0
 73 74  2  0  0  0  0
 74 75  1  0  0  0  0
 74 93  1  0  0  0  0
 75 76  1  0  0  0  0
 75 88  2  0  0  0  0
 76 77  1  0  0  0  0
 76 86  2  0  0  0  0
 77 78  1  0  0  0  0
 77 79  2  0  0  0  0
 79 80  1  0  0  0  0
 79145  1  0  0  0  0
 80 81  1  0  0  0  0
 80 85  2  0  0  0  0
 81 82  2  0  0  0  0
 81 83  2  0  0  0  0
 81 84  1  0  0  0  0
 85 86  1  0  0  0  0
 85146  1  0  0  0  0
 86 87  1  0  0  0  0
 88 89  1  0  0  0  0
 88 92  1  0  0  0  0
 89 90  2  0  0  0  0
 89147  1  0  0  0  0
 90 91  1  0  0  0  0
 90148  1  0  0  0  0
 91 92  1  0  0  0  0
 92149  1  0  0  0  0
 93 94  2  0  0  0  0
 93150  1  0  0  0  0
 94151  1  0  0  0  0
 95 96  2  0  0  0  0
 95152  1  0  0  0  0
 96153  1  0  0  0  0
 97 98  1  0  0  0  0
 97154  1  0  0  0  0
 98155  1  0  0  0  0
M  CHG  3  50  -1  68  -1  84  -1
M  END
$$$$
