4_0_5740
 OpenBabel04152301373D

145156  0  0  0  0  0  0  0  0999 V2000
    1.8749    1.5471   -0.4202 O   0  0  0  0  0  0  0  0  0  0  0  0
    3.0126    1.0887   -0.4014 C   0  0  0  0  0  0  0  0  0  0  0  0
    3.9941    1.4507    0.6940 C   0  0  0  0  0  0  0  0  0  0  0  0
    4.1422    0.3952    1.7905 C   0  0  0  0  0  0  0  0  0  0  0  0
    4.6349   -0.9453    1.2966 C   0  0  0  0  0  0  0  0  0  0  0  0
    5.8408   -1.0777    1.0502 O   0  0  0  0  0  0  0  0  0  0  0  0
    3.8379   -2.0269    1.0676 N   0  0  0  0  0  0  0  0  0  0  0  0
    2.4472   -2.2219    0.9197 C   0  0  0  0  0  0  0  0  0  0  0  0
    1.4899   -1.2142    1.0739 C   0  0  0  0  0  0  0  0  0  0  0  0
    0.1680   -1.3618    0.6377 C   0  0  0  0  0  0  0  0  0  0  0  0
   -0.2109   -2.5895    0.1139 C   0  0  0  0  0  0  0  0  0  0  0  0
   -1.4072   -2.9927   -0.3852 N   0  0  0  0  0  0  0  0  0  0  0  0
   -1.2287   -4.2805   -0.5977 C   0  0  0  0  0  0  0  0  0  0  0  0
   -2.2749   -5.2489   -0.8574 C   0  0  0  0  0  0  0  0  0  0  0  0
   -3.1400   -5.0697   -1.9448 C   0  0  0  0  0  0  0  0  0  0  0  0
   -4.2983   -5.8397   -2.0545 C   0  0  0  0  0  0  0  0  0  0  0  0
   -4.6028   -6.7815   -1.0725 C   0  0  0  0  0  0  0  0  0  0  0  0
   -3.7342   -6.9820   -0.0001 C   0  0  0  0  0  0  0  0  0  0  0  0
   -2.5667   -6.2260    0.1023 C   0  0  0  0  0  0  0  0  0  0  0  0
    0.0457   -4.7406   -0.3621 O   0  0  0  0  0  0  0  0  0  0  0  0
    0.7053   -3.6253    0.0854 C   0  0  0  0  0  0  0  0  0  0  0  0
    2.0424   -3.4962    0.4625 C   0  0  0  0  0  0  0  0  0  0  0  0
    3.4961    0.1751   -1.3070 N   0  0  0  0  0  0  0  0  0  0  0  0
    2.6445   -0.5234   -2.2530 C   0  0  0  0  0  0  0  0  0  0  0  0
    3.2841   -0.6815   -3.6277 C   0  0  0  0  0  0  0  0  0  0  0  0
    4.6765   -1.3239   -3.6281 C   0  0  0  0  0  0  0  0  0  0  0  0
    4.7628   -2.7400   -3.0510 C   0  0  0  0  0  0  0  0  0  0  0  0
    3.9492   -3.8091   -3.7830 C   0  0  0  0  0  0  0  0  0  0  0  0
    4.1411   -3.8662   -5.2960 C   0  0  0  0  0  0  0  0  0  0  0  0
    5.5274   -4.0552   -5.6959 N   0  0  0  0  0  0  0  0  0  0  0  0
    6.0376   -4.8369   -6.7049 C   0  0  0  0  0  0  0  0  0  0  0  0
    7.2531   -4.9511   -6.8407 O   0  0  0  0  0  0  0  0  0  0  0  0
    5.1174   -5.5697   -7.6020 C   0  0  0  0  0  0  0  0  0  0  0  0
    5.3540   -6.9239   -7.8538 C   0  0  0  0  0  0  0  0  0  0  0  0
    4.4421   -7.6565   -8.6187 C   0  0  0  0  0  0  0  0  0  0  0  0
    3.2730   -7.0487   -9.1039 C   0  0  0  0  0  0  0  0  0  0  0  0
    2.2438   -7.8192   -9.8510 C   0  0  0  0  0  0  0  0  0  0  0  0
    1.9312   -7.4593  -11.2794 C   0  0  0  0  0  0  0  0  0  0  0  0
    0.9842   -7.9155  -12.0571 N   0  0  0  0  0  0  0  0  0  0  0  0
    1.1002   -7.2113  -13.2501 C   0  0  0  0  0  0  0  0  0  0  0  0
    0.3752   -7.3477  -14.3848 C   0  0  0  0  0  0  0  0  0  0  0  0
    0.6835   -6.4379  -15.5413 C   0  0  0  0  0  0  0  0  0  0  0  0
    1.8484   -6.5883  -16.3088 C   0  0  0  0  0  0  0  0  0  0  0  0
    2.7778   -7.4913  -15.9583 F   0  0  0  0  0  0  0  0  0  0  0  0
    2.0839   -5.8030  -17.4325 C   0  0  0  0  0  0  0  0  0  0  0  0
    1.1271   -4.8610  -17.8155 C   0  0  0  0  0  0  0  0  0  0  0  0
    1.4240   -3.8907  -19.3085 S   0  0  0  0  0  0  0  0  0  0  0  0
    2.4922   -2.9985  -18.8685 O   0  0  0  0  0  0  0  0  0  0  0  0
    1.8115   -4.9151  -20.2729 O   0  0  0  0  0  0  0  0  0  0  0  0
    0.1369   -3.2505  -19.5608 O   0  5  0  0  0  0  0  0  0  0  0  0
   -0.0438   -4.6862  -17.0796 C   0  0  0  0  0  0  0  0  0  0  0  0
   -0.2461   -5.4645  -15.9440 C   0  0  0  0  0  0  0  0  0  0  0  0
   -1.3751   -5.2772  -15.2422 F   0  0  0  0  0  0  0  0  0  0  0  0
   -0.6728   -8.3189  -14.5594 C   0  0  0  0  0  0  0  0  0  0  0  0
   -1.4091   -8.5891  -15.6999 C   0  0  0  0  0  0  0  0  0  0  0  0
   -2.3473   -9.5769  -15.3898 C   0  0  0  0  0  0  0  0  0  0  0  0
   -2.1575   -9.9621  -14.0725 C   0  0  0  0  0  0  0  0  0  0  0  0
   -1.1321   -9.1776  -13.5730 N   0  0  0  0  0  0  0  0  0  0  0  0
   -2.8681  -10.9689  -13.3262 C   0  0  0  0  0  0  0  0  0  0  0  0
   -3.9353  -11.7414  -14.0506 C   0  0  0  0  0  0  0  0  0  0  0  0
   -5.3000  -11.5321  -13.8033 C   0  0  0  0  0  0  0  0  0  0  0  0
   -5.6901  -10.6826  -12.8398 F   0  0  0  0  0  0  0  0  0  0  0  0
   -6.2793  -12.2042  -14.5277 C   0  0  0  0  0  0  0  0  0  0  0  0
   -5.8915  -13.0854  -15.5396 C   0  0  0  0  0  0  0  0  0  0  0  0
   -7.1729  -13.9070  -16.5100 S   0  0  0  0  0  0  0  0  0  0  0  0
   -7.6794  -14.8892  -15.5573 O   0  0  0  0  0  0  0  0  0  0  0  0
   -8.0777  -12.8066  -16.8277 O   0  0  0  0  0  0  0  0  0  0  0  0
   -6.4397  -14.4556  -17.6471 O   0  5  0  0  0  0  0  0  0  0  0  0
   -4.5447  -13.3080  -15.8211 C   0  0  0  0  0  0  0  0  0  0  0  0
   -3.5826  -12.6472  -15.0651 C   0  0  0  0  0  0  0  0  0  0  0  0
   -2.2901  -12.8758  -15.3481 F   0  0  0  0  0  0  0  0  0  0  0  0
   -2.6285  -11.2837  -12.0300 C   0  0  0  0  0  0  0  0  0  0  0  0
   -1.6692  -10.7661  -11.1655 N   0  0  0  0  0  0  0  0  0  0  0  0
   -1.8416  -11.3897  -10.0243 C   0  0  0  0  0  0  0  0  0  0  0  0
   -1.0567  -11.2567   -8.7440 C   0  0  0  0  0  0  0  0  0  0  0  0
   -1.4321  -12.0587   -7.5464 C   0  0  0  0  0  0  0  0  0  0  0  0
   -1.2884  -13.4547   -7.5380 C   0  0  0  0  0  0  0  0  0  0  0  0
   -0.7725  -14.0815   -8.6066 F   0  0  0  0  0  0  0  0  0  0  0  0
   -1.7144  -14.2269   -6.4619 C   0  0  0  0  0  0  0  0  0  0  0  0
   -2.2697  -13.5908   -5.3508 C   0  0  0  0  0  0  0  0  0  0  0  0
   -2.8271  -14.6010   -3.9613 S   0  0  0  0  0  0  0  0  0  0  0  0
   -4.0511  -15.1850   -4.4973 O   0  0  0  0  0  0  0  0  0  0  0  0
   -1.7072  -15.5191   -3.7791 O   0  0  0  0  0  0  0  0  0  0  0  0
   -3.0090  -13.6259   -2.8900 O   0  5  0  0  0  0  0  0  0  0  0  0
   -2.3866  -12.2023   -5.3032 C   0  0  0  0  0  0  0  0  0  0  0  0
   -1.9813  -11.4543   -6.4048 C   0  0  0  0  0  0  0  0  0  0  0  0
   -2.1239  -10.1209   -6.3512 F   0  0  0  0  0  0  0  0  0  0  0  0
   -0.0149  -10.4022   -8.6995 C   0  0  0  0  0  0  0  0  0  0  0  0
    0.8273  -10.1562   -7.5334 C   0  0  0  0  0  0  0  0  0  0  0  0
    1.7136   -9.1902   -7.8270 C   0  0  0  0  0  0  0  0  0  0  0  0
    1.5323   -8.7768   -9.2211 C   0  0  0  0  0  0  0  0  0  0  0  0
    0.4964   -9.5630   -9.6637 N   0  0  0  0  0  0  0  0  0  0  0  0
   -2.9606  -12.3435  -10.0263 C   0  0  0  0  0  0  0  0  0  0  0  0
   -3.3756  -12.2727  -11.2834 C   0  0  0  0  0  0  0  0  0  0  0  0
    2.1877   -6.2727  -13.0843 C   0  0  0  0  0  0  0  0  0  0  0  0
    2.7771   -6.4299  -11.9074 C   0  0  0  0  0  0  0  0  0  0  0  0
    3.0718   -5.6779   -8.8766 C   0  0  0  0  0  0  0  0  0  0  0  0
    4.0138   -4.9316   -8.1736 C   0  0  0  0  0  0  0  0  0  0  0  0
    3.6649    2.3612    1.1495 H   0  0  0  0  0  0  0  0  0  0  0  0
    4.9523    1.5381    0.2258 H   0  0  0  0  0  0  0  0  0  0  0  0
    3.1867    0.2529    2.2507 H   0  0  0  0  0  0  0  0  0  0  0  0
    4.8802    0.7619    2.4730 H   0  0  0  0  0  0  0  0  0  0  0  0
    4.3491   -2.8644    0.9867 H   0  0  0  0  0  0  0  0  0  0  0  0
    1.7682   -0.3292    1.5259 H   0  0  0  0  0  0  0  0  0  0  0  0
   -0.5041   -0.5814    0.7037 H   0  0  0  0  0  0  0  0  0  0  0  0
   -2.9198   -4.3660   -2.6668 H   0  0  0  0  0  0  0  0  0  0  0  0
   -4.9289   -5.7123   -2.8615 H   0  0  0  0  0  0  0  0  0  0  0  0
   -5.4733   -7.3317   -1.1395 H   0  0  0  0  0  0  0  0  0  0  0  0
   -3.9553   -7.6897    0.7177 H   0  0  0  0  0  0  0  0  0  0  0  0
   -1.9163   -6.3871    0.8872 H   0  0  0  0  0  0  0  0  0  0  0  0
    2.7008   -4.2892    0.4103 H   0  0  0  0  0  0  0  0  0  0  0  0
    4.4622   -0.0140   -1.3146 H   0  0  0  0  0  0  0  0  0  0  0  0
    1.7334    0.0270   -2.3623 H   0  0  0  0  0  0  0  0  0  0  0  0
    2.4741   -1.5058   -1.8648 H   0  0  0  0  0  0  0  0  0  0  0  0
    3.3673    0.2901   -4.0681 H   0  0  0  0  0  0  0  0  0  0  0  0
    2.6497   -1.3457   -4.1766 H   0  0  0  0  0  0  0  0  0  0  0  0
    5.3266   -0.6966   -3.0548 H   0  0  0  0  0  0  0  0  0  0  0  0
    4.9519   -1.4149   -4.6580 H   0  0  0  0  0  0  0  0  0  0  0  0
    4.4199   -2.7030   -2.0381 H   0  0  0  0  0  0  0  0  0  0  0  0
    5.7866   -3.0334   -3.1540 H   0  0  0  0  0  0  0  0  0  0  0  0
    2.9133   -3.6235   -3.5898 H   0  0  0  0  0  0  0  0  0  0  0  0
    4.2988   -4.7487   -3.4090 H   0  0  0  0  0  0  0  0  0  0  0  0
    3.7887   -2.9480   -5.7175 H   0  0  0  0  0  0  0  0  0  0  0  0
    3.5913   -4.7121   -5.6525 H   0  0  0  0  0  0  0  0  0  0  0  0
    6.1922   -3.5535   -5.1709 H   0  0  0  0  0  0  0  0  0  0  0  0
    6.1987   -7.3811   -7.4764 H   0  0  0  0  0  0  0  0  0  0  0  0
    4.6290   -8.6496   -8.8280 H   0  0  0  0  0  0  0  0  0  0  0  0
    2.9541   -5.9151  -17.9758 H   0  0  0  0  0  0  0  0  0  0  0  0
   -0.7486   -3.9914  -17.3720 H   0  0  0  0  0  0  0  0  0  0  0  0
   -1.2863   -8.1387  -16.6203 H   0  0  0  0  0  0  0  0  0  0  0  0
   -3.0604   -9.9553  -16.0327 H   0  0  0  0  0  0  0  0  0  0  0  0
   -0.7814   -9.2228  -12.6542 H   0  0  0  0  0  0  0  0  0  0  0  0
   -7.2789  -12.0537  -14.3202 H   0  0  0  0  0  0  0  0  0  0  0  0
   -4.2662  -13.9522  -16.5777 H   0  0  0  0  0  0  0  0  0  0  0  0
   -1.6212  -15.2544   -6.4850 H   0  0  0  0  0  0  0  0  0  0  0  0
   -2.7675  -11.7366   -4.4647 H   0  0  0  0  0  0  0  0  0  0  0  0
    0.7538  -10.6460   -6.6280 H   0  0  0  0  0  0  0  0  0  0  0  0
    2.4116   -8.8009   -7.1741 H   0  0  0  0  0  0  0  0  0  0  0  0
    0.1515   -9.5294  -10.5852 H   0  0  0  0  0  0  0  0  0  0  0  0
   -3.3272  -12.9181   -9.2514 H   0  0  0  0  0  0  0  0  0  0  0  0
   -4.1346  -12.8493  -11.6790 H   0  0  0  0  0  0  0  0  0  0  0  0
    2.4679   -5.5729  -13.7891 H   0  0  0  0  0  0  0  0  0  0  0  0
    3.6116   -5.9547  -11.5295 H   0  0  0  0  0  0  0  0  0  0  0  0
    2.2187   -5.2197   -9.2335 H   0  0  0  0  0  0  0  0  0  0  0  0
    3.8973   -3.9109   -8.0751 H   0  0  0  0  0  0  0  0  0  0  0  0
  1  2  2  0  0  0  0
  2  3  1  0  0  0  0
  2 23  1  0  0  0  0
  3  4  1  0  0  0  0
  3 99  1  0  0  0  0
  3100  1  0  0  0  0
  4  5  1  0  0  0  0
  4101  1  0  0  0  0
  4102  1  0  0  0  0
  5  6  2  0  0  0  0
  5  7  1  0  0  0  0
  7  8  1  0  0  0  0
  7103  1  0  0  0  0
  8  9  1  0  0  0  0
  8 22  2  0  0  0  0
  9 10  2  0  0  0  0
  9104  1  0  0  0  0
 10 11  1  0  0  0  0
 10105  1  0  0  0  0
 11 12  1  0  0  0  0
 11 21  2  0  0  0  0
 12 13  2  0  0  0  0
 13 14  1  0  0  0  0
 13 20  1  0  0  0  0
 14 15  1  0  0  0  0
 14 19  2  0  0  0  0
 15 16  2  0  0  0  0
 15106  1  0  0  0  0
 16 17  1  0  0  0  0
 16107  1  0  0  0  0
 17 18  2  0  0  0  0
 17108  1  0  0  0  0
 18 19  1  0  0  0  0
 18109  1  0  0  0  0
 19110  1  0  0  0  0
 20 21  1  0  0  0  0
 21 22  1  0  0  0  0
 22111  1  0  0  0  0
 23 24  1  0  0  0  0
 23112  1  0  0  0  0
 24 25  1  0  0  0  0
 24113  1  0  0  0  0
 24114  1  0  0  0  0
 25 26  1  0  0  0  0
 25115  1  0  0  0  0
 25116  1  0  0  0  0
 26 27  1  0  0  0  0
 26117  1  0  0  0  0
 26118  1  0  0  0  0
 27 28  1  0  0  0  0
 27119  1  0  0  0  0
 27120  1  0  0  0  0
 28 29  1  0  0  0  0
 28121  1  0  0  0  0
 28122  1  0  0  0  0
 29 30  1  0  0  0  0
 29123  1  0  0  0  0
 29124  1  0  0  0  0
 30 31  1  0  0  0  0
 30125  1  0  0  0  0
 31 32  2  0  0  0  0
 31 33  1  0  0  0  0
 33 34  1  0  0  0  0
 33 98  2  0  0  0  0
 34 35  2  0  0  0  0
 34126  1  0  0  0  0
 35 36  1  0  0  0  0
 35127  1  0  0  0  0
 36 37  1  0  0  0  0
 36 97  2  0  0  0  0
 37 38  1  0  0  0  0
 37 91  2  0  0  0  0
 38 39  2  0  0  0  0
 38 96  1  0  0  0  0
 39 40  1  0  0  0  0
 40 41  2  0  0  0  0
 40 95  1  0  0  0  0
 41 42  1  0  0  0  0
 41 54  1  0  0  0  0
 42 43  1  0  0  0  0
 42 52  2  0  0  0  0
 43 44  1  0  0  0  0
 43 45  2  0  0  0  0
 45 46  1  0  0  0  0
 45128  1  0  0  0  0
 46 47  1  0  0  0  0
 46 51  2  0  0  0  0
 47 48  2  0  0  0  0
 47 49  2  0  0  0  0
 47 50  1  0  0  0  0
 51 52  1  0  0  0  0
 51129  1  0  0  0  0
 52 53  1  0  0  0  0
 54 55  2  0  0  0  0
 54 58  1  0  0  0  0
 55 56  1  0  0  0  0
 55130  1  0  0  0  0
 56 57  2  0  0  0  0
 56131  1  0  0  0  0
 57 58  1  0  0  0  0
 57 59  1  0  0  0  0
 58132  1  0  0  0  0
 59 60  1  0  0  0  0
 59 72  2  0  0  0  0
 60 61  1  0  0  0  0
 60 70  2  0  0  0  0
 61 62  1  0  0  0  0
 61 63  2  0  0  0  0
 63 64  1  0  0  0  0
 63133  1  0  0  0  0
 64 65  1  0  0  0  0
 64 69  2  0  0  0  0
 65 66  2  0  0  0  0
 65 67  2  0  0  0  0
 65 68  1  0  0  0  0
 69 70  1  0  0  0  0
 69134  1  0  0  0  0
 70 71  1  0  0  0  0
 72 73  1  0  0  0  0
 72 94  1  0  0  0  0
 73 74  2  0  0  0  0
 74 75  1  0  0  0  0
 74 93  1  0  0  0  0
 75 76  1  0  0  0  0
 75 88  2  0  0  0  0
 76 77  1  0  0  0  0
 76 86  2  0  0  0  0
 77 78  1  0  0  0  0
 77 79  2  0  0  0  0
 79 80  1  0  0  0  0
 79135  1  0  0  0  0
 80 81  1  0  0  0  0
 80 85  2  0  0  0  0
 81 82  2  0  0  0  0
 81 83  2  0  0  0  0
 81 84  1  0  0  0  0
 85 86  1  0  0  0  0
 85136  1  0  0  0  0
 86 87  1  0  0  0  0
 88 89  1  0  0  0  0
 88 92  1  0  0  0  0
 89 90  2  0  0  0  0
 89137  1  0  0  0  0
 90 91  1  0  0  0  0
 90138  1  0  0  0  0
 91 92  1  0  0  0  0
 92139  1  0  0  0  0
 93 94  2  0  0  0  0
 93140  1  0  0  0  0
 94141  1  0  0  0  0
 95 96  2  0  0  0  0
 95142  1  0  0  0  0
 96143  1  0  0  0  0
 97 98  1  0  0  0  0
 97144  1  0  0  0  0
 98145  1  0  0  0  0
M  CHG  3  50  -1  68  -1  84  -1
M  END
$$$$
