4_0_7873
 OpenBabel04152301363D

155166  0  0  0  0  0  0  0  0999 V2000
    3.0766    0.2172    1.7504 O   0  0  0  0  0  0  0  0  0  0  0  0
    3.7772    0.8224    0.9375 C   0  0  0  0  0  0  0  0  0  0  0  0
    4.6116    0.0312   -0.0458 C   0  0  0  0  0  0  0  0  0  0  0  0
    4.4817    0.2653   -1.5333 C   0  0  0  0  0  0  0  0  0  0  0  0
    5.5622   -0.2250   -2.3034 C   0  0  0  0  0  0  0  0  0  0  0  0
    5.8022    0.2360   -3.5951 C   0  0  0  0  0  0  0  0  0  0  0  0
    4.9601    1.1927   -4.1404 C   0  0  0  0  0  0  0  0  0  0  0  0
    3.7910    1.5419   -3.4613 C   0  0  0  0  0  0  0  0  0  0  0  0
    3.4921    1.0024   -2.1938 C   0  0  0  0  0  0  0  0  0  0  0  0
    2.1631    1.3604   -1.6427 C   0  0  0  0  0  0  0  0  0  0  0  0
    1.8039    2.5364   -1.6925 O   0  0  0  0  0  0  0  0  0  0  0  0
    1.2890    0.4255   -1.1463 N   0  0  0  0  0  0  0  0  0  0  0  0
    1.2499   -1.0329   -1.1909 C   0  0  0  0  0  0  0  0  0  0  0  0
    1.3817   -1.7262    0.1730 C   0  0  0  0  0  0  0  0  0  0  0  0
    0.5754   -1.1128    1.3295 C   0  0  0  0  0  0  0  0  0  0  0  0
   -0.8617   -1.5946    1.4890 C   0  0  0  0  0  0  0  0  0  0  0  0
   -0.9959   -3.0743    1.8368 C   0  0  0  0  0  0  0  0  0  0  0  0
   -0.2987   -3.4855    3.1289 C   0  0  0  0  0  0  0  0  0  0  0  0
   -0.9820   -2.9642    4.3068 N   0  0  0  0  0  0  0  0  0  0  0  0
   -1.4492   -3.6864    5.3803 C   0  0  0  0  0  0  0  0  0  0  0  0
   -2.1967   -3.1889    6.2129 O   0  0  0  0  0  0  0  0  0  0  0  0
   -1.0195   -5.0936    5.4848 C   0  0  0  0  0  0  0  0  0  0  0  0
   -1.9712   -6.1127    5.4663 C   0  0  0  0  0  0  0  0  0  0  0  0
   -1.5427   -7.4381    5.3791 C   0  0  0  0  0  0  0  0  0  0  0  0
   -0.1733   -7.7377    5.2643 C   0  0  0  0  0  0  0  0  0  0  0  0
    0.2992   -9.1396    5.1405 C   0  0  0  0  0  0  0  0  0  0  0  0
    1.1679   -9.7269    6.2198 C   0  0  0  0  0  0  0  0  0  0  0  0
    1.7146  -10.9126    6.2860 N   0  0  0  0  0  0  0  0  0  0  0  0
    2.4481  -10.9241    7.4666 C   0  0  0  0  0  0  0  0  0  0  0  0
    3.1294  -11.9494    8.0296 C   0  0  0  0  0  0  0  0  0  0  0  0
    3.8287  -11.6889    9.3367 C   0  0  0  0  0  0  0  0  0  0  0  0
    3.1155  -11.4452   10.5225 C   0  0  0  0  0  0  0  0  0  0  0  0
    1.7737  -11.3959   10.5075 F   0  0  0  0  0  0  0  0  0  0  0  0
    3.7663  -11.1988   11.7267 C   0  0  0  0  0  0  0  0  0  0  0  0
    5.1610  -11.2299   11.7619 C   0  0  0  0  0  0  0  0  0  0  0  0
    5.9886  -10.9159   13.3347 S   0  0  0  0  0  0  0  0  0  0  0  0
    5.7474   -9.4869   13.5104 O   0  0  0  0  0  0  0  0  0  0  0  0
    5.2668  -11.7970   14.2468 O   0  0  0  0  0  0  0  0  0  0  0  0
    7.3746  -11.2896   13.0711 O   0  5  0  0  0  0  0  0  0  0  0  0
    5.9024  -11.4997   10.6128 C   0  0  0  0  0  0  0  0  0  0  0  0
    5.2308  -11.7096    9.4119 C   0  0  0  0  0  0  0  0  0  0  0  0
    5.9641  -11.9346    8.3103 F   0  0  0  0  0  0  0  0  0  0  0  0
    3.2184  -13.2631    7.4496 C   0  0  0  0  0  0  0  0  0  0  0  0
    3.8368  -14.3889    7.9626 C   0  0  0  0  0  0  0  0  0  0  0  0
    3.7194  -15.4166    7.0220 C   0  0  0  0  0  0  0  0  0  0  0  0
    2.9703  -14.9516    5.9522 C   0  0  0  0  0  0  0  0  0  0  0  0
    2.6774  -13.6260    6.2242 N   0  0  0  0  0  0  0  0  0  0  0  0
    2.5533  -15.6695    4.7724 C   0  0  0  0  0  0  0  0  0  0  0  0
    2.9343  -17.1218    4.6747 C   0  0  0  0  0  0  0  0  0  0  0  0
    3.8966  -17.5772    3.7606 C   0  0  0  0  0  0  0  0  0  0  0  0
    4.4611  -16.7239    2.8914 F   0  0  0  0  0  0  0  0  0  0  0  0
    4.2715  -18.9158    3.7084 C   0  0  0  0  0  0  0  0  0  0  0  0
    3.6990  -19.8171    4.6085 C   0  0  0  0  0  0  0  0  0  0  0  0
    4.2252  -21.5427    4.5555 S   0  0  0  0  0  0  0  0  0  0  0  0
    3.6032  -22.0019    3.3180 O   0  0  0  0  0  0  0  0  0  0  0  0
    5.6797  -21.4234    4.5279 O   0  0  0  0  0  0  0  0  0  0  0  0
    3.6712  -22.1059    5.7830 O   0  5  0  0  0  0  0  0  0  0  0  0
    2.7563  -19.3965    5.5447 C   0  0  0  0  0  0  0  0  0  0  0  0
    2.3722  -18.0600    5.5569 C   0  0  0  0  0  0  0  0  0  0  0  0
    1.4554  -17.6755    6.4594 F   0  0  0  0  0  0  0  0  0  0  0  0
    1.8214  -15.1428    3.7591 C   0  0  0  0  0  0  0  0  0  0  0  0
    1.3102  -13.8564    3.6221 N   0  0  0  0  0  0  0  0  0  0  0  0
    0.6816  -13.8398    2.4701 C   0  0  0  0  0  0  0  0  0  0  0  0
   -0.0884  -12.7154    1.8289 C   0  0  0  0  0  0  0  0  0  0  0  0
   -0.7417  -12.8913    0.5027 C   0  0  0  0  0  0  0  0  0  0  0  0
   -1.8389  -13.7512    0.3425 C   0  0  0  0  0  0  0  0  0  0  0  0
   -2.3044  -14.4465    1.3915 F   0  0  0  0  0  0  0  0  0  0  0  0
   -2.4555  -13.9270   -0.8926 C   0  0  0  0  0  0  0  0  0  0  0  0
   -1.9851  -13.2077   -1.9925 C   0  0  0  0  0  0  0  0  0  0  0  0
   -2.8237  -13.4055   -3.5798 S   0  0  0  0  0  0  0  0  0  0  0  0
   -2.4201  -14.7541   -3.9600 O   0  0  0  0  0  0  0  0  0  0  0  0
   -4.2248  -13.2379   -3.2071 O   0  0  0  0  0  0  0  0  0  0  0  0
   -2.2654  -12.3271   -4.3906 O   0  5  0  0  0  0  0  0  0  0  0  0
   -0.9091  -12.3302   -1.8686 C   0  0  0  0  0  0  0  0  0  0  0  0
   -0.2913  -12.1935   -0.6292 C   0  0  0  0  0  0  0  0  0  0  0  0
    0.7442  -11.3453   -0.5290 F   0  0  0  0  0  0  0  0  0  0  0  0
   -0.1995  -11.5438    2.4861 C   0  0  0  0  0  0  0  0  0  0  0  0
   -0.9273  -10.3710    2.0108 C   0  0  0  0  0  0  0  0  0  0  0  0
   -0.7978   -9.3799    2.9080 C   0  0  0  0  0  0  0  0  0  0  0  0
   -0.0082   -9.8608    4.0442 C   0  0  0  0  0  0  0  0  0  0  0  0
    0.3100  -11.1512    3.7020 N   0  0  0  0  0  0  0  0  0  0  0  0
    0.7513  -15.1066    1.7295 C   0  0  0  0  0  0  0  0  0  0  0  0
    1.4199  -15.8772    2.5767 C   0  0  0  0  0  0  0  0  0  0  0  0
    2.3347   -9.6068    8.0499 C   0  0  0  0  0  0  0  0  0  0  0  0
    1.4894   -8.8550    7.3624 C   0  0  0  0  0  0  0  0  0  0  0  0
    0.7665   -6.6954    5.2949 C   0  0  0  0  0  0  0  0  0  0  0  0
    0.3491   -5.3821    5.4632 C   0  0  0  0  0  0  0  0  0  0  0  0
    3.9669    2.1944    1.0005 N   0  0  0  0  0  0  0  0  0  0  0  0
    3.1094    3.0228    1.7685 C   0  0  0  0  0  0  0  0  0  0  0  0
    3.5919    4.1596    2.4152 C   0  0  0  0  0  0  0  0  0  0  0  0
    2.7510    4.8776    3.2888 C   0  0  0  0  0  0  0  0  0  0  0  0
    1.4131    4.4908    3.4731 C   0  0  0  0  0  0  0  0  0  0  0  0
    0.3938    5.3801    4.6383 S   0  0  0  0  0  0  0  0  0  0  0  0
    1.2587    5.7232    5.7544 O   0  0  0  0  0  0  0  0  0  0  0  0
   -0.2933    6.4030    3.8850 O   0  0  0  0  0  0  0  0  0  0  0  0
   -0.7590    4.3083    5.2315 N   0  0  0  0  0  0  0  0  0  0  0  0
   -0.3950    3.1984    6.1207 C   0  0  0  0  0  0  0  0  0  0  0  0
   -0.9766    1.9702    5.4429 C   0  0  0  0  0  0  0  0  0  0  0  0
   -2.2110    2.4811    4.7159 C   0  0  0  0  0  0  0  0  0  0  0  0
   -1.9651    3.9682    4.4612 C   0  0  0  0  0  0  0  0  0  0  0  0
    0.9116    3.4198    2.7497 C   0  0  0  0  0  0  0  0  0  0  0  0
    1.7572    2.7012    1.9093 C   0  0  0  0  0  0  0  0  0  0  0  0
    4.3844   -1.0009    0.1219 H   0  0  0  0  0  0  0  0  0  0  0  0
    5.6062    0.3667    0.1620 H   0  0  0  0  0  0  0  0  0  0  0  0
    6.1865   -0.9403   -1.8988 H   0  0  0  0  0  0  0  0  0  0  0  0
    6.5980   -0.1304   -4.1404 H   0  0  0  0  0  0  0  0  0  0  0  0
    5.1949    1.6423   -5.0392 H   0  0  0  0  0  0  0  0  0  0  0  0
    3.1331    2.2078   -3.8958 H   0  0  0  0  0  0  0  0  0  0  0  0
    0.5307    0.8210   -0.6587 H   0  0  0  0  0  0  0  0  0  0  0  0
    2.0535   -1.3679   -1.8129 H   0  0  0  0  0  0  0  0  0  0  0  0
    0.2837   -1.2954   -1.5684 H   0  0  0  0  0  0  0  0  0  0  0  0
    2.4151   -1.7071    0.4499 H   0  0  0  0  0  0  0  0  0  0  0  0
    0.9797   -2.7080    0.0341 H   0  0  0  0  0  0  0  0  0  0  0  0
    0.5482   -0.0536    1.1806 H   0  0  0  0  0  0  0  0  0  0  0  0
    1.0784   -1.4243    2.2210 H   0  0  0  0  0  0  0  0  0  0  0  0
   -1.3775   -1.4192    0.5681 H   0  0  0  0  0  0  0  0  0  0  0  0
   -1.2771   -1.0491    2.3104 H   0  0  0  0  0  0  0  0  0  0  0  0
   -0.5773   -3.6455    1.0347 H   0  0  0  0  0  0  0  0  0  0  0  0
   -2.0397   -3.2595    1.9818 H   0  0  0  0  0  0  0  0  0  0  0  0
    0.7031   -3.1097    3.1158 H   0  0  0  0  0  0  0  0  0  0  0  0
   -0.3100   -4.5539    3.1855 H   0  0  0  0  0  0  0  0  0  0  0  0
   -1.1243   -1.9905    4.3371 H   0  0  0  0  0  0  0  0  0  0  0  0
   -2.9777   -5.8901    5.5164 H   0  0  0  0  0  0  0  0  0  0  0  0
   -2.2350   -8.2032    5.3990 H   0  0  0  0  0  0  0  0  0  0  0  0
    3.2255  -10.9959   12.5819 H   0  0  0  0  0  0  0  0  0  0  0  0
    6.9327  -11.5431   10.6518 H   0  0  0  0  0  0  0  0  0  0  0  0
    4.3038  -14.4583    8.8803 H   0  0  0  0  0  0  0  0  0  0  0  0
    4.1227  -16.3625    7.1094 H   0  0  0  0  0  0  0  0  0  0  0  0
    2.1616  -13.0290    5.6353 H   0  0  0  0  0  0  0  0  0  0  0  0
    4.9633  -19.2385    3.0139 H   0  0  0  0  0  0  0  0  0  0  0  0
    2.3502  -20.0654    6.2175 H   0  0  0  0  0  0  0  0  0  0  0  0
   -3.2487  -14.5794   -0.9938 H   0  0  0  0  0  0  0  0  0  0  0  0
   -0.5761  -11.7907   -2.6828 H   0  0  0  0  0  0  0  0  0  0  0  0
   -1.4566  -10.3127    1.1268 H   0  0  0  0  0  0  0  0  0  0  0  0
   -1.1918   -8.4309    2.8122 H   0  0  0  0  0  0  0  0  0  0  0  0
    0.8526  -11.7411    4.2737 H   0  0  0  0  0  0  0  0  0  0  0  0
    0.3780  -15.3365    0.7953 H   0  0  0  0  0  0  0  0  0  0  0  0
    1.6281  -16.8748    2.4141 H   0  0  0  0  0  0  0  0  0  0  0  0
    2.8449   -9.2938    8.8906 H   0  0  0  0  0  0  0  0  0  0  0  0
    1.1452   -7.9050    7.5724 H   0  0  0  0  0  0  0  0  0  0  0  0
    1.7715   -6.9062    5.1919 H   0  0  0  0  0  0  0  0  0  0  0  0
    1.0424   -4.6254    5.5714 H   0  0  0  0  0  0  0  0  0  0  0  0
    4.7118    2.6017    0.5021 H   0  0  0  0  0  0  0  0  0  0  0  0
    4.5616    4.4743    2.2547 H   0  0  0  0  0  0  0  0  0  0  0  0
    3.1215    5.6952    3.7980 H   0  0  0  0  0  0  0  0  0  0  0  0
   -0.8233    3.3343    7.0918 H   0  0  0  0  0  0  0  0  0  0  0  0
    0.6620    3.1223    6.2688 H   0  0  0  0  0  0  0  0  0  0  0  0
   -1.2445    1.2301    6.1677 H   0  0  0  0  0  0  0  0  0  0  0  0
   -0.2786    1.5045    4.7790 H   0  0  0  0  0  0  0  0  0  0  0  0
   -3.0820    2.3470    5.3228 H   0  0  0  0  0  0  0  0  0  0  0  0
   -2.3758    1.9491    3.8022 H   0  0  0  0  0  0  0  0  0  0  0  0
   -1.8048    4.1469    3.4185 H   0  0  0  0  0  0  0  0  0  0  0  0
   -2.8037    4.5639    4.7559 H   0  0  0  0  0  0  0  0  0  0  0  0
   -0.0828    3.1568    2.8337 H   0  0  0  0  0  0  0  0  0  0  0  0
    1.3735    1.9067    1.3740 H   0  0  0  0  0  0  0  0  0  0  0  0
  1  2  2  0  0  0  0
  2  3  1  0  0  0  0
  2 88  1  0  0  0  0
  3  4  1  0  0  0  0
  3103  1  0  0  0  0
  3104  1  0  0  0  0
  4  5  1  0  0  0  0
  4  9  2  0  0  0  0
  5  6  2  0  0  0  0
  5105  1  0  0  0  0
  6  7  1  0  0  0  0
  6106  1  0  0  0  0
  7  8  2  0  0  0  0
  7107  1  0  0  0  0
  8  9  1  0  0  0  0
  8108  1  0  0  0  0
  9 10  1  0  0  0  0
 10 11  2  0  0  0  0
 10 12  1  0  0  0  0
 12 13  1  0  0  0  0
 12109  1  0  0  0  0
 13 14  1  0  0  0  0
 13110  1  0  0  0  0
 13111  1  0  0  0  0
 14 15  1  0  0  0  0
 14112  1  0  0  0  0
 14113  1  0  0  0  0
 15 16  1  0  0  0  0
 15114  1  0  0  0  0
 15115  1  0  0  0  0
 16 17  1  0  0  0  0
 16116  1  0  0  0  0
 16117  1  0  0  0  0
 17 18  1  0  0  0  0
 17118  1  0  0  0  0
 17119  1  0  0  0  0
 18 19  1  0  0  0  0
 18120  1  0  0  0  0
 18121  1  0  0  0  0
 19 20  1  0  0  0  0
 19122  1  0  0  0  0
 20 21  2  0  0  0  0
 20 22  1  0  0  0  0
 22 23  1  0  0  0  0
 22 87  2  0  0  0  0
 23 24  2  0  0  0  0
 23123  1  0  0  0  0
 24 25  1  0  0  0  0
 24124  1  0  0  0  0
 25 26  1  0  0  0  0
 25 86  2  0  0  0  0
 26 27  1  0  0  0  0
 26 80  2  0  0  0  0
 27 28  2  0  0  0  0
 27 85  1  0  0  0  0
 28 29  1  0  0  0  0
 29 30  2  0  0  0  0
 29 84  1  0  0  0  0
 30 31  1  0  0  0  0
 30 43  1  0  0  0  0
 31 32  1  0  0  0  0
 31 41  2  0  0  0  0
 32 33  1  0  0  0  0
 32 34  2  0  0  0  0
 34 35  1  0  0  0  0
 34125  1  0  0  0  0
 35 36  1  0  0  0  0
 35 40  2  0  0  0  0
 36 37  2  0  0  0  0
 36 38  2  0  0  0  0
 36 39  1  0  0  0  0
 40 41  1  0  0  0  0
 40126  1  0  0  0  0
 41 42  1  0  0  0  0
 43 44  2  0  0  0  0
 43 47  1  0  0  0  0
 44 45  1  0  0  0  0
 44127  1  0  0  0  0
 45 46  2  0  0  0  0
 45128  1  0  0  0  0
 46 47  1  0  0  0  0
 46 48  1  0  0  0  0
 47129  1  0  0  0  0
 48 49  1  0  0  0  0
 48 61  2  0  0  0  0
 49 50  1  0  0  0  0
 49 59  2  0  0  0  0
 50 51  1  0  0  0  0
 50 52  2  0  0  0  0
 52 53  1  0  0  0  0
 52130  1  0  0  0  0
 53 54  1  0  0  0  0
 53 58  2  0  0  0  0
 54 55  2  0  0  0  0
 54 56  2  0  0  0  0
 54 57  1  0  0  0  0
 58 59  1  0  0  0  0
 58131  1  0  0  0  0
 59 60  1  0  0  0  0
 61 62  1  0  0  0  0
 61 83  1  0  0  0  0
 62 63  2  0  0  0  0
 63 64  1  0  0  0  0
 63 82  1  0  0  0  0
 64 65  1  0  0  0  0
 64 77  2  0  0  0  0
 65 66  1  0  0  0  0
 65 75  2  0  0  0  0
 66 67  1  0  0  0  0
 66 68  2  0  0  0  0
 68 69  1  0  0  0  0
 68132  1  0  0  0  0
 69 70  1  0  0  0  0
 69 74  2  0  0  0  0
 70 71  2  0  0  0  0
 70 72  2  0  0  0  0
 70 73  1  0  0  0  0
 74 75  1  0  0  0  0
 74133  1  0  0  0  0
 75 76  1  0  0  0  0
 77 78  1  0  0  0  0
 77 81  1  0  0  0  0
 78 79  2  0  0  0  0
 78134  1  0  0  0  0
 79 80  1  0  0  0  0
 79135  1  0  0  0  0
 80 81  1  0  0  0  0
 81136  1  0  0  0  0
 82 83  2  0  0  0  0
 82137  1  0  0  0  0
 83138  1  0  0  0  0
 84 85  2  0  0  0  0
 84139  1  0  0  0  0
 85140  1  0  0  0  0
 86 87  1  0  0  0  0
 86141  1  0  0  0  0
 87142  1  0  0  0  0
 88 89  1  0  0  0  0
 88143  1  0  0  0  0
 89 90  1  0  0  0  0
 89102  2  0  0  0  0
 90 91  2  0  0  0  0
 90144  1  0  0  0  0
 91 92  1  0  0  0  0
 91145  1  0  0  0  0
 92 93  1  0  0  0  0
 92101  2  0  0  0  0
 93 94  2  0  0  0  0
 93 95  2  0  0  0  0
 93 96  1  0  0  0  0
 96 97  1  0  0  0  0
 96100  1  0  0  0  0
 97 98  1  0  0  0  0
 97146  1  0  0  0  0
 97147  1  0  0  0  0
 98 99  1  0  0  0  0
 98148  1  0  0  0  0
 98149  1  0  0  0  0
 99100  1  0  0  0  0
 99150  1  0  0  0  0
 99151  1  0  0  0  0
100152  1  0  0  0  0
100153  1  0  0  0  0
101102  1  0  0  0  0
101154  1  0  0  0  0
102155  1  0  0  0  0
M  CHG  3  39  -1  57  -1  73  -1
M  END
$$$$
