4_1_6480
 OpenBabel04152301373D

153164  0  0  0  0  0  0  0  0999 V2000
    1.1089   -0.1949   -0.1952 C   0  0  0  0  0  0  0  0  0  0  0  0
    0.5675   -0.8447   -1.4226 C   0  0  0  0  0  0  0  0  0  0  0  0
    0.6450   -2.1898   -1.7956 C   0  0  0  0  0  0  0  0  0  0  0  0
    1.2922   -3.3092   -1.0104 C   0  0  0  0  0  0  0  0  0  0  0  0
    0.2284   -4.1532   -0.4778 N   0  3  0  0  0  0  0  0  0  0  0  0
    0.6695   -5.1997    0.4329 C   0  0  0  0  0  0  0  0  0  0  0  0
    0.9583   -4.7737    1.8611 C   0  0  0  0  0  0  0  0  0  0  0  0
    0.6851   -3.4878    2.3551 C   0  0  0  0  0  0  0  0  0  0  0  0
    0.9919   -3.1338    3.6718 C   0  0  0  0  0  0  0  0  0  0  0  0
    1.5493   -4.0745    4.5307 C   0  0  0  0  0  0  0  0  0  0  0  0
    1.7848   -5.3623    4.0672 C   0  0  0  0  0  0  0  0  0  0  0  0
    2.3017   -6.2746    4.9014 F   0  0  0  0  0  0  0  0  0  0  0  0
    1.4965   -5.7184    2.7514 C   0  0  0  0  0  0  0  0  0  0  0  0
   -0.0399   -2.3247   -3.0642 C   0  0  0  0  0  0  0  0  0  0  0  0
   -0.0469   -3.5300   -3.9178 C   0  0  0  0  0  0  0  0  0  0  0  0
    0.2334   -4.6511   -3.4895 O   0  0  0  0  0  0  0  0  0  0  0  0
   -0.2351   -3.4390   -5.2830 N   0  0  0  0  0  0  0  0  0  0  0  0
   -0.5935   -2.2926   -6.0807 C   0  0  0  0  0  0  0  0  0  0  0  0
   -0.0421   -2.2359   -7.4989 C   0  0  0  0  0  0  0  0  0  0  0  0
   -0.3374   -3.3909   -8.4599 C   0  0  0  0  0  0  0  0  0  0  0  0
   -1.6527   -4.1600   -8.3097 C   0  0  0  0  0  0  0  0  0  0  0  0
   -2.7126   -3.7531   -9.2022 N   0  0  0  0  0  0  0  0  0  0  0  0
   -3.8168   -4.5207   -9.5520 C   0  0  0  0  0  0  0  0  0  0  0  0
   -4.6605   -4.0281  -10.2938 O   0  0  0  0  0  0  0  0  0  0  0  0
   -3.9060   -5.9566   -9.0934 C   0  0  0  0  0  0  0  0  0  0  0  0
   -3.1481   -6.9059   -9.7582 C   0  0  0  0  0  0  0  0  0  0  0  0
   -3.2045   -8.2736   -9.3702 C   0  0  0  0  0  0  0  0  0  0  0  0
   -4.1165   -8.8303   -8.3976 C   0  0  0  0  0  0  0  0  0  0  0  0
   -4.5172  -10.3824   -8.6300 C   0  0  0  0  0  0  0  0  0  0  0  0
   -4.8145  -10.3808  -10.0962 C   0  0  0  0  0  0  0  0  0  0  0  0
   -5.7034   -9.5466  -10.5653 N   0  0  0  0  0  0  0  0  0  0  0  0
   -5.6681   -9.6649  -11.9283 C   0  0  0  0  0  0  0  0  0  0  0  0
   -6.8673   -9.9622  -12.5074 C   0  0  0  0  0  0  0  0  0  0  0  0
   -8.0200   -9.0927  -12.0770 C   0  0  0  0  0  0  0  0  0  0  0  0
   -8.5237   -9.0343  -10.7578 C   0  0  0  0  0  0  0  0  0  0  0  0
   -8.1012   -9.8994   -9.8212 F   0  0  0  0  0  0  0  0  0  0  0  0
   -9.4996   -8.1195  -10.3787 C   0  0  0  0  0  0  0  0  0  0  0  0
  -10.0404   -7.2792  -11.3474 C   0  0  0  0  0  0  0  0  0  0  0  0
  -11.3086   -6.0882  -10.8631 S   0  0  0  0  0  0  0  0  0  0  0  0
  -12.1885   -6.8772  -10.0177 O   0  0  0  0  0  0  0  0  0  0  0  0
  -10.5170   -5.0660  -10.1825 O   0  0  0  0  0  0  0  0  0  0  0  0
  -11.8822   -5.6744  -12.1438 O   0  5  0  0  0  0  0  0  0  0  0  0
   -9.6354   -7.3719  -12.6804 C   0  0  0  0  0  0  0  0  0  0  0  0
   -8.6210   -8.2618  -13.0270 C   0  0  0  0  0  0  0  0  0  0  0  0
   -8.2275   -8.3136  -14.3106 F   0  0  0  0  0  0  0  0  0  0  0  0
   -7.0018  -11.3752  -12.7484 C   0  0  0  0  0  0  0  0  0  0  0  0
   -6.1372  -12.3357  -13.2362 C   0  0  0  0  0  0  0  0  0  0  0  0
   -6.2683  -13.4082  -12.3295 C   0  0  0  0  0  0  0  0  0  0  0  0
   -7.4613  -13.2663  -11.6327 C   0  0  0  0  0  0  0  0  0  0  0  0
   -7.9576  -12.0395  -12.0106 N   0  0  0  0  0  0  0  0  0  0  0  0
   -8.1097  -13.9718  -10.5537 C   0  0  0  0  0  0  0  0  0  0  0  0
   -9.2791  -13.4467   -9.7417 C   0  0  0  0  0  0  0  0  0  0  0  0
  -10.4658  -13.1846  -10.4478 C   0  0  0  0  0  0  0  0  0  0  0  0
  -10.4944  -13.3351  -11.7825 F   0  0  0  0  0  0  0  0  0  0  0  0
  -11.6364  -12.7649   -9.8249 C   0  0  0  0  0  0  0  0  0  0  0  0
  -11.6622  -12.6421   -8.4387 C   0  0  0  0  0  0  0  0  0  0  0  0
  -13.2378  -12.2394   -7.6543 S   0  0  0  0  0  0  0  0  0  0  0  0
  -13.4842  -10.9002   -8.1105 O   0  0  0  0  0  0  0  0  0  0  0  0
  -14.1187  -13.2794   -8.2028 O   0  0  0  0  0  0  0  0  0  0  0  0
  -12.9536  -12.3887   -6.2181 O   0  5  0  0  0  0  0  0  0  0  0  0
  -10.5136  -12.8703   -7.6897 C   0  0  0  0  0  0  0  0  0  0  0  0
   -9.3316  -13.2382   -8.3439 C   0  0  0  0  0  0  0  0  0  0  0  0
   -8.2461  -13.3648   -7.5658 F   0  0  0  0  0  0  0  0  0  0  0  0
   -7.5388  -15.1370  -10.1645 C   0  0  0  0  0  0  0  0  0  0  0  0
   -7.2808  -15.2689   -8.8369 N   0  0  0  0  0  0  0  0  0  0  0  0
   -6.0110  -15.5347   -8.8159 C   0  0  0  0  0  0  0  0  0  0  0  0
   -5.1946  -15.3784   -7.6060 C   0  0  0  0  0  0  0  0  0  0  0  0
   -5.0190  -16.8051   -6.9479 C   0  0  0  0  0  0  0  0  0  0  0  0
   -3.8567  -17.2109   -6.2720 C   0  0  0  0  0  0  0  0  0  0  0  0
   -3.0221  -16.2890   -5.7724 F   0  0  0  0  0  0  0  0  0  0  0  0
   -3.4572  -18.5791   -6.1590 C   0  0  0  0  0  0  0  0  0  0  0  0
   -4.2130  -19.6037   -6.7389 C   0  0  0  0  0  0  0  0  0  0  0  0
   -3.5518  -21.3029   -6.8542 S   0  0  0  0  0  0  0  0  0  0  0  0
   -2.3209  -21.0977   -7.6133 O   0  0  0  0  0  0  0  0  0  0  0  0
   -3.3746  -21.6721   -5.4541 O   0  0  0  0  0  0  0  0  0  0  0  0
   -4.5925  -22.0416   -7.5653 O   0  5  0  0  0  0  0  0  0  0  0  0
   -5.4264  -19.2840   -7.3131 C   0  0  0  0  0  0  0  0  0  0  0  0
   -5.8182  -17.9292   -7.3816 C   0  0  0  0  0  0  0  0  0  0  0  0
   -7.0017  -17.7458   -7.9854 F   0  0  0  0  0  0  0  0  0  0  0  0
   -5.0427  -13.9900   -7.4665 C   0  0  0  0  0  0  0  0  0  0  0  0
   -4.9416  -13.1880   -6.2450 C   0  0  0  0  0  0  0  0  0  0  0  0
   -4.8268  -11.8527   -6.5270 C   0  0  0  0  0  0  0  0  0  0  0  0
   -4.7689  -11.5936   -7.9762 C   0  0  0  0  0  0  0  0  0  0  0  0
   -5.0443  -12.9208   -8.4541 N   0  0  0  0  0  0  0  0  0  0  0  0
   -5.4503  -16.0861  -10.0451 C   0  0  0  0  0  0  0  0  0  0  0  0
   -6.5031  -15.8995  -10.8413 C   0  0  0  0  0  0  0  0  0  0  0  0
   -4.3759  -10.2935  -12.1893 C   0  0  0  0  0  0  0  0  0  0  0  0
   -3.8807  -10.8968  -11.1007 C   0  0  0  0  0  0  0  0  0  0  0  0
   -4.8905   -7.8384   -7.7604 C   0  0  0  0  0  0  0  0  0  0  0  0
   -4.7668   -6.4235   -8.0857 C   0  0  0  0  0  0  0  0  0  0  0  0
   -0.8115   -1.1617   -3.1417 C   0  0  0  0  0  0  0  0  0  0  0  0
   -2.1366   -0.9126   -3.7834 C   0  0  0  0  0  0  0  0  0  0  0  0
   -0.1305   -0.1902   -2.4225 N   0  0  0  0  0  0  0  0  0  0  0  0
   -0.2825    1.2631   -2.6054 C   0  0  0  0  0  0  0  0  0  0  0  0
    0.6509    1.8399   -3.6519 C   0  0  0  0  0  0  0  0  0  0  0  0
    0.3718    1.6501   -5.0133 C   0  0  0  0  0  0  0  0  0  0  0  0
   -0.7636    1.0557   -5.3893 F   0  0  0  0  0  0  0  0  0  0  0  0
    1.2026    2.1148   -6.0325 C   0  0  0  0  0  0  0  0  0  0  0  0
    2.3375    2.8431   -5.7142 C   0  0  0  0  0  0  0  0  0  0  0  0
    2.6138    3.1115   -4.3754 C   0  0  0  0  0  0  0  0  0  0  0  0
    1.7838    2.6123   -3.3539 C   0  0  0  0  0  0  0  0  0  0  0  0
    2.1979    3.0576   -1.7366 Cl  0  0  0  0  0  0  0  0  0  0  0  0
    1.6032   -0.9276    0.4078 H   0  0  0  0  0  0  0  0  0  0  0  0
    0.3059    0.2419    0.3609 H   0  0  0  0  0  0  0  0  0  0  0  0
    1.8062    0.5675   -0.4733 H   0  0  0  0  0  0  0  0  0  0  0  0
    1.8711   -2.9031   -0.2074 H   0  0  0  0  0  0  0  0  0  0  0  0
    1.9424   -3.8800   -1.6400 H   0  0  0  0  0  0  0  0  0  0  0  0
   -0.2462   -4.5974   -1.2638 H   0  0  0  0  0  0  0  0  0  0  0  0
   -0.3768   -3.5386    0.0667 H   0  0  0  0  0  0  0  0  0  0  0  0
    1.5664   -5.6235    0.0319 H   0  0  0  0  0  0  0  0  0  0  0  0
   -0.1515   -5.8826    0.5004 H   0  0  0  0  0  0  0  0  0  0  0  0
    0.2487   -2.7897    1.7328 H   0  0  0  0  0  0  0  0  0  0  0  0
    0.8050   -2.1755    4.0062 H   0  0  0  0  0  0  0  0  0  0  0  0
    1.7855   -3.8185    5.5021 H   0  0  0  0  0  0  0  0  0  0  0  0
    1.6793   -6.6815    2.4288 H   0  0  0  0  0  0  0  0  0  0  0  0
   -0.1060   -4.2771   -5.7832 H   0  0  0  0  0  0  0  0  0  0  0  0
   -0.2486   -1.4206   -5.5654 H   0  0  0  0  0  0  0  0  0  0  0  0
   -1.6550   -2.3576   -6.1983 H   0  0  0  0  0  0  0  0  0  0  0  0
    1.0222   -2.1602   -7.4181 H   0  0  0  0  0  0  0  0  0  0  0  0
   -0.5504   -1.4026   -7.9373 H   0  0  0  0  0  0  0  0  0  0  0  0
    0.4557   -4.1008   -8.3509 H   0  0  0  0  0  0  0  0  0  0  0  0
   -0.4240   -2.9161   -9.4149 H   0  0  0  0  0  0  0  0  0  0  0  0
   -1.9984   -4.0301   -7.3055 H   0  0  0  0  0  0  0  0  0  0  0  0
   -1.4305   -5.1765   -8.5594 H   0  0  0  0  0  0  0  0  0  0  0  0
   -2.6471   -2.8537   -9.5971 H   0  0  0  0  0  0  0  0  0  0  0  0
   -2.5385   -6.6195  -10.5401 H   0  0  0  0  0  0  0  0  0  0  0  0
   -2.5392   -8.9214   -9.8205 H   0  0  0  0  0  0  0  0  0  0  0  0
   -9.8168   -8.0646   -9.3982 H   0  0  0  0  0  0  0  0  0  0  0  0
  -10.0835   -6.7864  -13.4025 H   0  0  0  0  0  0  0  0  0  0  0  0
   -5.5341  -12.2812  -14.0718 H   0  0  0  0  0  0  0  0  0  0  0  0
   -5.5881  -14.1741  -12.2042 H   0  0  0  0  0  0  0  0  0  0  0  0
   -8.8519  -11.6922  -11.7894 H   0  0  0  0  0  0  0  0  0  0  0  0
  -12.4760  -12.5471  -10.3840 H   0  0  0  0  0  0  0  0  0  0  0  0
  -10.5319  -12.7697   -6.6628 H   0  0  0  0  0  0  0  0  0  0  0  0
   -2.5965  -18.8149   -5.6407 H   0  0  0  0  0  0  0  0  0  0  0  0
   -6.0393  -20.0252   -7.6874 H   0  0  0  0  0  0  0  0  0  0  0  0
   -4.9552  -13.5803   -5.2906 H   0  0  0  0  0  0  0  0  0  0  0  0
   -4.7856  -11.1137   -5.8078 H   0  0  0  0  0  0  0  0  0  0  0  0
   -5.2256  -13.0985   -9.4053 H   0  0  0  0  0  0  0  0  0  0  0  0
   -4.5228  -16.4952  -10.2387 H   0  0  0  0  0  0  0  0  0  0  0  0
   -6.5733  -16.2499  -11.8095 H   0  0  0  0  0  0  0  0  0  0  0  0
   -3.9002  -10.2750  -13.1049 H   0  0  0  0  0  0  0  0  0  0  0  0
   -3.0776  -11.5369  -10.9993 H   0  0  0  0  0  0  0  0  0  0  0  0
   -5.5690   -8.1251   -7.0376 H   0  0  0  0  0  0  0  0  0  0  0  0
   -5.3314   -5.7401   -7.5573 H   0  0  0  0  0  0  0  0  0  0  0  0
   -2.4654   -1.8018   -4.2795 H   0  0  0  0  0  0  0  0  0  0  0  0
   -2.0443   -0.1199   -4.4962 H   0  0  0  0  0  0  0  0  0  0  0  0
   -2.8495   -0.6376   -3.0344 H   0  0  0  0  0  0  0  0  0  0  0  0
   -0.0835    1.7451   -1.6710 H   0  0  0  0  0  0  0  0  0  0  0  0
   -1.2824    1.4356   -2.9450 H   0  0  0  0  0  0  0  0  0  0  0  0
    0.9732    1.9172   -7.0191 H   0  0  0  0  0  0  0  0  0  0  0  0
    2.9684    3.1815   -6.4575 H   0  0  0  0  0  0  0  0  0  0  0  0
    3.4370    3.6833   -4.1295 H   0  0  0  0  0  0  0  0  0  0  0  0
  1  2  1  0  0  0  0
  1103  1  0  0  0  0
  1104  1  0  0  0  0
  1105  1  0  0  0  0
  2  3  2  0  0  0  0
  2 93  1  0  0  0  0
  3  4  1  0  0  0  0
  3 14  1  0  0  0  0
  4  5  1  0  0  0  0
  4106  1  0  0  0  0
  4107  1  0  0  0  0
  5  6  1  0  0  0  0
  5108  1  0  0  0  0
  5109  1  0  0  0  0
  6  7  1  0  0  0  0
  6110  1  0  0  0  0
  6111  1  0  0  0  0
  7  8  1  0  0  0  0
  7 13  2  0  0  0  0
  8  9  2  0  0  0  0
  8112  1  0  0  0  0
  9 10  1  0  0  0  0
  9113  1  0  0  0  0
 10 11  2  0  0  0  0
 10114  1  0  0  0  0
 11 12  1  0  0  0  0
 11 13  1  0  0  0  0
 13115  1  0  0  0  0
 14 15  1  0  0  0  0
 14 91  2  0  0  0  0
 15 16  2  0  0  0  0
 15 17  1  0  0  0  0
 17 18  1  0  0  0  0
 17116  1  0  0  0  0
 18 19  1  0  0  0  0
 18117  1  0  0  0  0
 18118  1  0  0  0  0
 19 20  1  0  0  0  0
 19119  1  0  0  0  0
 19120  1  0  0  0  0
 20 21  1  0  0  0  0
 20121  1  0  0  0  0
 20122  1  0  0  0  0
 21 22  1  0  0  0  0
 21123  1  0  0  0  0
 21124  1  0  0  0  0
 22 23  1  0  0  0  0
 22125  1  0  0  0  0
 23 24  2  0  0  0  0
 23 25  1  0  0  0  0
 25 26  1  0  0  0  0
 25 90  2  0  0  0  0
 26 27  2  0  0  0  0
 26126  1  0  0  0  0
 27 28  1  0  0  0  0
 27127  1  0  0  0  0
 28 29  1  0  0  0  0
 28 89  2  0  0  0  0
 29 30  1  0  0  0  0
 29 83  2  0  0  0  0
 30 31  2  0  0  0  0
 30 88  1  0  0  0  0
 31 32  1  0  0  0  0
 32 33  2  0  0  0  0
 32 87  1  0  0  0  0
 33 34  1  0  0  0  0
 33 46  1  0  0  0  0
 34 35  1  0  0  0  0
 34 44  2  0  0  0  0
 35 36  1  0  0  0  0
 35 37  2  0  0  0  0
 37 38  1  0  0  0  0
 37128  1  0  0  0  0
 38 39  1  0  0  0  0
 38 43  2  0  0  0  0
 39 40  2  0  0  0  0
 39 41  2  0  0  0  0
 39 42  1  0  0  0  0
 43 44  1  0  0  0  0
 43129  1  0  0  0  0
 44 45  1  0  0  0  0
 46 47  2  0  0  0  0
 46 50  1  0  0  0  0
 47 48  1  0  0  0  0
 47130  1  0  0  0  0
 48 49  2  0  0  0  0
 48131  1  0  0  0  0
 49 50  1  0  0  0  0
 49 51  1  0  0  0  0
 50132  1  0  0  0  0
 51 52  1  0  0  0  0
 51 64  2  0  0  0  0
 52 53  1  0  0  0  0
 52 62  2  0  0  0  0
 53 54  1  0  0  0  0
 53 55  2  0  0  0  0
 55 56  1  0  0  0  0
 55133  1  0  0  0  0
 56 57  1  0  0  0  0
 56 61  2  0  0  0  0
 57 58  2  0  0  0  0
 57 59  2  0  0  0  0
 57 60  1  0  0  0  0
 61 62  1  0  0  0  0
 61134  1  0  0  0  0
 62 63  1  0  0  0  0
 64 65  1  0  0  0  0
 64 86  1  0  0  0  0
 65 66  2  0  0  0  0
 66 67  1  0  0  0  0
 66 85  1  0  0  0  0
 67 68  1  0  0  0  0
 67 80  2  0  0  0  0
 68 69  1  0  0  0  0
 68 78  2  0  0  0  0
 69 70  1  0  0  0  0
 69 71  2  0  0  0  0
 71 72  1  0  0  0  0
 71135  1  0  0  0  0
 72 73  1  0  0  0  0
 72 77  2  0  0  0  0
 73 74  2  0  0  0  0
 73 75  2  0  0  0  0
 73 76  1  0  0  0  0
 77 78  1  0  0  0  0
 77136  1  0  0  0  0
 78 79  1  0  0  0  0
 80 81  1  0  0  0  0
 80 84  1  0  0  0  0
 81 82  2  0  0  0  0
 81137  1  0  0  0  0
 82 83  1  0  0  0  0
 82138  1  0  0  0  0
 83 84  1  0  0  0  0
 84139  1  0  0  0  0
 85 86  2  0  0  0  0
 85140  1  0  0  0  0
 86141  1  0  0  0  0
 87 88  2  0  0  0  0
 87142  1  0  0  0  0
 88143  1  0  0  0  0
 89 90  1  0  0  0  0
 89144  1  0  0  0  0
 90145  1  0  0  0  0
 91 92  1  0  0  0  0
 91 93  1  0  0  0  0
 92146  1  0  0  0  0
 92147  1  0  0  0  0
 92148  1  0  0  0  0
 93 94  1  0  0  0  0
 94 95  1  0  0  0  0
 94149  1  0  0  0  0
 94150  1  0  0  0  0
 95 96  1  0  0  0  0
 95101  2  0  0  0  0
 96 97  1  0  0  0  0
 96 98  2  0  0  0  0
 98 99  1  0  0  0  0
 98151  1  0  0  0  0
 99100  2  0  0  0  0
 99152  1  0  0  0  0
100101  1  0  0  0  0
100153  1  0  0  0  0
101102  1  0  0  0  0
M  CHG  4   5   1  42  -1  60  -1  76  -1
M  END
$$$$
