4_1_982
 OpenBabel04152301373D

144155  0  0  1  0  0  0  0  0999 V2000
    0.4023    0.1891    0.1411 O   0  0  0  0  0  0  0  0  0  0  0  0
    1.6301    0.2227    0.0846 C   0  0  0  0  0  0  0  0  0  0  0  0
    2.3996   -0.8137   -0.7287 C   0  0  0  0  0  0  0  0  0  0  0  0
    3.6035   -0.3103   -1.5510 C   0  0  1  0  0  0  0  0  0  0  0  0
    4.8867   -0.1694   -0.6824 C   0  0  0  0  0  0  0  0  0  0  0  0
    6.0562   -1.1029   -1.0242 C   0  0  1  0  0  0  0  0  0  0  0  0
    5.7070   -2.5306   -0.5817 C   0  0  0  0  0  0  0  0  0  0  0  0
    4.9677   -3.1282   -1.7769 C   0  0  0  0  0  0  0  0  0  0  0  0
    5.0417   -2.0442   -2.8627 C   0  0  1  0  0  0  0  0  0  0  0  0
    3.7872   -1.1679   -2.8353 C   0  0  0  0  0  0  0  0  0  0  0  0
    6.2334   -1.3167   -2.4505 N   0  3  1  0  0  0  0  0  0  0  0  0
    6.8738   -0.2950   -3.2966 C   0  0  2  0  0  0  0  0  0  0  0  0
    6.1941    1.0901   -3.3548 C   0  0  0  0  0  0  0  0  0  0  0  0
    6.8330    2.1056   -4.3026 C   0  0  0  0  0  0  0  0  0  0  0  0
    6.8972    1.6218   -5.7391 C   0  0  0  0  0  0  0  0  0  0  0  0
    8.0185    0.2100   -5.8560 S   0  0  0  0  0  0  0  0  0  0  0  0
    7.1565   -0.8936   -4.6970 C   0  0  0  0  0  0  0  0  0  0  0  0
    2.3829    1.0992    0.8242 N   0  0  0  0  0  0  0  0  0  0  0  0
    1.8232    1.9363    1.8654 C   0  0  0  0  0  0  0  0  0  0  0  0
    2.3100    1.4937    3.2465 C   0  0  0  0  0  0  0  0  0  0  0  0
    3.8260    1.5807    3.4631 C   0  0  0  0  0  0  0  0  0  0  0  0
    4.4545    2.9477    3.2052 C   0  0  0  0  0  0  0  0  0  0  0  0
    3.8866    3.9960    4.0364 N   0  0  0  0  0  0  0  0  0  0  0  0
    4.5098    4.9168    4.8419 C   0  0  0  0  0  0  0  0  0  0  0  0
    3.8293    5.6277    5.5817 O   0  0  0  0  0  0  0  0  0  0  0  0
    5.9848    5.0434    4.8507 C   0  0  0  0  0  0  0  0  0  0  0  0
    6.6383    5.1955    6.0773 C   0  0  0  0  0  0  0  0  0  0  0  0
    8.0336    5.2677    6.1202 C   0  0  0  0  0  0  0  0  0  0  0  0
    8.7903    5.1470    4.9431 C   0  0  0  0  0  0  0  0  0  0  0  0
   10.2778    5.1226    4.9816 C   0  0  0  0  0  0  0  0  0  0  0  0
   11.0775    6.2008    4.2991 C   0  0  0  0  0  0  0  0  0  0  0  0
   12.3752    6.3104    4.1709 N   0  0  0  0  0  0  0  0  0  0  0  0
   12.5889    7.4630    3.4233 C   0  0  0  0  0  0  0  0  0  0  0  0
   13.7631    8.0392    3.0689 C   0  0  0  0  0  0  0  0  0  0  0  0
   13.7073    9.2982    2.2446 C   0  0  0  0  0  0  0  0  0  0  0  0
   13.2488   10.5134    2.7786 C   0  0  0  0  0  0  0  0  0  0  0  0
   12.7874   10.5676    4.0383 F   0  0  0  0  0  0  0  0  0  0  0  0
   13.2181   11.6779    2.0180 C   0  0  0  0  0  0  0  0  0  0  0  0
   13.6834   11.6419    0.7025 C   0  0  0  0  0  0  0  0  0  0  0  0
   13.6430   13.1641   -0.2670 S   0  0  0  0  0  0  0  0  0  0  0  0
   12.2107   13.3208   -0.5020 O   0  0  0  0  0  0  0  0  0  0  0  0
   14.2445   14.1307    0.6458 O   0  0  0  0  0  0  0  0  0  0  0  0
   14.4393   12.8389   -1.4460 O   0  5  0  0  0  0  0  0  0  0  0  0
   14.1725   10.4610    0.1466 C   0  0  0  0  0  0  0  0  0  0  0  0
   14.1649    9.3011    0.9163 C   0  0  0  0  0  0  0  0  0  0  0  0
   14.6155    8.1686    0.3539 F   0  0  0  0  0  0  0  0  0  0  0  0
   15.0584    7.5211    3.4292 C   0  0  0  0  0  0  0  0  0  0  0  0
   16.3040    8.0673    3.1711 C   0  0  0  0  0  0  0  0  0  0  0  0
   17.2774    7.1864    3.6530 C   0  0  0  0  0  0  0  0  0  0  0  0
   16.6391    6.1209    4.2667 C   0  0  0  0  0  0  0  0  0  0  0  0
   15.2783    6.3365    4.1171 N   0  0  0  0  0  0  0  0  0  0  0  0
   17.2297    4.9890    4.9379 C   0  0  0  0  0  0  0  0  0  0  0  0
   18.7315    4.9290    5.0211 C   0  0  0  0  0  0  0  0  0  0  0  0
   19.4787    3.9940    4.2882 C   0  0  0  0  0  0  0  0  0  0  0  0
   18.8572    3.0798    3.5264 F   0  0  0  0  0  0  0  0  0  0  0  0
   20.8686    3.9648    4.3503 C   0  0  0  0  0  0  0  0  0  0  0  0
   21.5333    4.9078    5.1368 C   0  0  0  0  0  0  0  0  0  0  0  0
   23.3379    4.8807    5.1803 S   0  0  0  0  0  0  0  0  0  0  0  0
   23.5952    3.6894    5.9825 O   0  0  0  0  0  0  0  0  0  0  0  0
   23.6823    4.7792    3.7655 O   0  0  0  0  0  0  0  0  0  0  0  0
   23.6825    6.1502    5.8135 O   0  5  0  0  0  0  0  0  0  0  0  0
   20.8254    5.8662    5.8598 C   0  0  0  0  0  0  0  0  0  0  0  0
   19.4351    5.8569    5.8073 C   0  0  0  0  0  0  0  0  0  0  0  0
   18.7711    6.7800    6.5211 F   0  0  0  0  0  0  0  0  0  0  0  0
   16.5285    3.9870    5.5239 C   0  0  0  0  0  0  0  0  0  0  0  0
   15.1504    3.8245    5.6232 N   0  0  0  0  0  0  0  0  0  0  0  0
   14.9681    2.6987    6.2716 C   0  0  0  0  0  0  0  0  0  0  0  0
   13.6776    2.0460    6.6900 C   0  0  0  0  0  0  0  0  0  0  0  0
   13.6844    0.7596    7.4389 C   0  0  0  0  0  0  0  0  0  0  0  0
   14.1641    0.6938    8.7557 C   0  0  0  0  0  0  0  0  0  0  0  0
   14.6348    1.7990    9.3535 F   0  0  0  0  0  0  0  0  0  0  0  0
   14.1933   -0.5036    9.4631 C   0  0  0  0  0  0  0  0  0  0  0  0
   13.7072   -1.6615    8.8538 C   0  0  0  0  0  0  0  0  0  0  0  0
   13.7100   -3.2018    9.7966 S   0  0  0  0  0  0  0  0  0  0  0  0
   15.1317   -3.5240    9.8288 O   0  0  0  0  0  0  0  0  0  0  0  0
   13.1198   -2.7847   11.0646 O   0  0  0  0  0  0  0  0  0  0  0  0
   12.8789   -4.0902    8.9894 O   0  5  0  0  0  0  0  0  0  0  0  0
   13.2026   -1.6313    7.5546 C   0  0  0  0  0  0  0  0  0  0  0  0
   13.2107   -0.4271    6.8575 C   0  0  0  0  0  0  0  0  0  0  0  0
   12.7256   -0.4166    5.6060 F   0  0  0  0  0  0  0  0  0  0  0  0
   12.5091    2.6486    6.3932 C   0  0  0  0  0  0  0  0  0  0  0  0
   11.1863    2.1374    6.7379 C   0  0  0  0  0  0  0  0  0  0  0  0
   10.2524    2.9645    6.2418 C   0  0  0  0  0  0  0  0  0  0  0  0
   10.9113    4.0930    5.5798 C   0  0  0  0  0  0  0  0  0  0  0  0
   12.2500    3.8209    5.7211 N   0  0  0  0  0  0  0  0  0  0  0  0
   16.2120    2.0025    6.6286 C   0  0  0  0  0  0  0  0  0  0  0  0
   17.1314    2.8501    6.1879 C   0  0  0  0  0  0  0  0  0  0  0  0
   11.2849    7.9909    3.0843 C   0  0  0  0  0  0  0  0  0  0  0  0
   10.3192    7.2855    3.6559 C   0  0  0  0  0  0  0  0  0  0  0  0
    8.1197    5.0318    3.7157 C   0  0  0  0  0  0  0  0  0  0  0  0
    6.7257    5.0327    3.6657 C   0  0  0  0  0  0  0  0  0  0  0  0
    1.7097   -1.2649   -1.4108 H   0  0  0  0  0  0  0  0  0  0  0  0
    2.8193   -1.4785   -0.0029 H   0  0  0  0  0  0  0  0  0  0  0  0
    3.3984    0.6848   -1.8867 H   0  0  0  0  0  0  0  0  0  0  0  0
    4.6114   -0.3537    0.3350 H   0  0  0  0  0  0  0  0  0  0  0  0
    5.2498    0.8185   -0.8752 H   0  0  0  0  0  0  0  0  0  0  0  0
    6.9056   -0.6436   -0.5634 H   0  0  0  0  0  0  0  0  0  0  0  0
    5.0780   -2.5156    0.2838 H   0  0  0  0  0  0  0  0  0  0  0  0
    6.5735   -3.0978   -0.3128 H   0  0  0  0  0  0  0  0  0  0  0  0
    3.9499   -3.3398   -1.5237 H   0  0  0  0  0  0  0  0  0  0  0  0
    5.3987   -4.0533   -2.0983 H   0  0  0  0  0  0  0  0  0  0  0  0
    5.0908   -2.4095   -3.8672 H   0  0  0  0  0  0  0  0  0  0  0  0
    3.8296   -0.5037   -3.6731 H   0  0  0  0  0  0  0  0  0  0  0  0
    2.9557   -1.8407   -2.8633 H   0  0  0  0  0  0  0  0  0  0  0  0
    7.0622   -1.8755   -2.6537 H   0  0  0  0  0  0  0  0  0  0  0  0
    7.7943   -0.0518   -2.8082 H   0  0  0  0  0  0  0  0  0  0  0  0
    6.2107    1.5056   -2.3689 H   0  0  0  0  0  0  0  0  0  0  0  0
    5.2101    0.9151   -3.7369 H   0  0  0  0  0  0  0  0  0  0  0  0
    7.8288    2.3057   -3.9660 H   0  0  0  0  0  0  0  0  0  0  0  0
    6.2210    2.9832   -4.2889 H   0  0  0  0  0  0  0  0  0  0  0  0
    7.2544    2.4126   -6.3652 H   0  0  0  0  0  0  0  0  0  0  0  0
    5.9196    1.3254   -6.0574 H   0  0  0  0  0  0  0  0  0  0  0  0
    6.2191   -1.1656   -5.1353 H   0  0  0  0  0  0  0  0  0  0  0  0
    7.8125   -1.7235   -4.5363 H   0  0  0  0  0  0  0  0  0  0  0  0
    3.3477    1.1621    0.6388 H   0  0  0  0  0  0  0  0  0  0  0  0
    0.7558    1.8688    1.8325 H   0  0  0  0  0  0  0  0  0  0  0  0
    2.1407    2.9445    1.6993 H   0  0  0  0  0  0  0  0  0  0  0  0
    2.0126    0.4762    3.3920 H   0  0  0  0  0  0  0  0  0  0  0  0
    1.8703    2.1718    3.9478 H   0  0  0  0  0  0  0  0  0  0  0  0
    4.2927    0.8754    2.8076 H   0  0  0  0  0  0  0  0  0  0  0  0
    3.9841    1.3785    4.5018 H   0  0  0  0  0  0  0  0  0  0  0  0
    4.3016    3.2057    2.1781 H   0  0  0  0  0  0  0  0  0  0  0  0
    5.4944    2.8741    3.4462 H   0  0  0  0  0  0  0  0  0  0  0  0
    2.9040    4.0549    4.0192 H   0  0  0  0  0  0  0  0  0  0  0  0
    6.0910    5.2544    6.9502 H   0  0  0  0  0  0  0  0  0  0  0  0
    8.5114    5.4108    7.0237 H   0  0  0  0  0  0  0  0  0  0  0  0
   12.8562   12.5564    2.4209 H   0  0  0  0  0  0  0  0  0  0  0  0
   14.5343   10.4468   -0.8198 H   0  0  0  0  0  0  0  0  0  0  0  0
   16.4834    8.9696    2.7034 H   0  0  0  0  0  0  0  0  0  0  0  0
   18.2984    7.3092    3.5662 H   0  0  0  0  0  0  0  0  0  0  0  0
   14.5717    5.7373    4.4500 H   0  0  0  0  0  0  0  0  0  0  0  0
   21.4009    3.2557    3.8222 H   0  0  0  0  0  0  0  0  0  0  0  0
   21.3242    6.5712    6.4248 H   0  0  0  0  0  0  0  0  0  0  0  0
   14.5687   -0.5353   10.4239 H   0  0  0  0  0  0  0  0  0  0  0  0
   12.8291   -2.4881    7.1170 H   0  0  0  0  0  0  0  0  0  0  0  0
   10.9988    1.2775    7.2769 H   0  0  0  0  0  0  0  0  0  0  0  0
    9.2322    2.8271    6.3152 H   0  0  0  0  0  0  0  0  0  0  0  0
   12.9583    4.4099    5.3738 H   0  0  0  0  0  0  0  0  0  0  0  0
   16.3371    1.0925    7.0990 H   0  0  0  0  0  0  0  0  0  0  0  0
   18.1482    2.7165    6.3035 H   0  0  0  0  0  0  0  0  0  0  0  0
   11.1273    8.8100    2.4766 H   0  0  0  0  0  0  0  0  0  0  0  0
    9.3009    7.4533    3.6511 H   0  0  0  0  0  0  0  0  0  0  0  0
    8.6627    4.9457    2.8424 H   0  0  0  0  0  0  0  0  0  0  0  0
    6.2417    5.0255    2.7542 H   0  0  0  0  0  0  0  0  0  0  0  0
  1  2  2  0  0  0  0
  2  3  1  0  0  0  0
  2 18  1  0  0  0  0
  3  4  1  0  0  0  0
  3 92  1  0  0  0  0
  3 93  1  0  0  0  0
  4  5  1  0  0  0  0
  4 10  1  0  0  0  0
  4 94  1  6  0  0  0
  5  6  1  0  0  0  0
  5 95  1  0  0  0  0
  5 96  1  0  0  0  0
  6  7  1  0  0  0  0
  6 11  1  0  0  0  0
  6 97  1  1  0  0  0
  7  8  1  0  0  0  0
  7 98  1  0  0  0  0
  7 99  1  0  0  0  0
  8  9  1  0  0  0  0
  8100  1  0  0  0  0
  8101  1  0  0  0  0
  9 10  1  0  0  0  0
  9 11  1  0  0  0  0
  9102  1  6  0  0  0
 10103  1  0  0  0  0
 10104  1  0  0  0  0
 11 12  1  0  0  0  0
 11105  1  6  0  0  0
 12 13  1  0  0  0  0
 12 17  1  0  0  0  0
 12106  1  1  0  0  0
 13 14  1  0  0  0  0
 13107  1  0  0  0  0
 13108  1  0  0  0  0
 14 15  1  0  0  0  0
 14109  1  0  0  0  0
 14110  1  0  0  0  0
 15 16  1  0  0  0  0
 15111  1  0  0  0  0
 15112  1  0  0  0  0
 16 17  1  0  0  0  0
 17113  1  0  0  0  0
 17114  1  0  0  0  0
 18 19  1  0  0  0  0
 18115  1  0  0  0  0
 19 20  1  0  0  0  0
 19116  1  0  0  0  0
 19117  1  0  0  0  0
 20 21  1  0  0  0  0
 20118  1  0  0  0  0
 20119  1  0  0  0  0
 21 22  1  0  0  0  0
 21120  1  0  0  0  0
 21121  1  0  0  0  0
 22 23  1  0  0  0  0
 22122  1  0  0  0  0
 22123  1  0  0  0  0
 23 24  1  0  0  0  0
 23124  1  0  0  0  0
 24 25  2  0  0  0  0
 24 26  1  0  0  0  0
 26 27  1  0  0  0  0
 26 91  2  0  0  0  0
 27 28  2  0  0  0  0
 27125  1  0  0  0  0
 28 29  1  0  0  0  0
 28126  1  0  0  0  0
 29 30  1  0  0  0  0
 29 90  2  0  0  0  0
 30 31  1  0  0  0  0
 30 84  2  0  0  0  0
 31 32  2  0  0  0  0
 31 89  1  0  0  0  0
 32 33  1  0  0  0  0
 33 34  2  0  0  0  0
 33 88  1  0  0  0  0
 34 35  1  0  0  0  0
 34 47  1  0  0  0  0
 35 36  1  0  0  0  0
 35 45  2  0  0  0  0
 36 37  1  0  0  0  0
 36 38  2  0  0  0  0
 38 39  1  0  0  0  0
 38127  1  0  0  0  0
 39 40  1  0  0  0  0
 39 44  2  0  0  0  0
 40 41  2  0  0  0  0
 40 42  2  0  0  0  0
 40 43  1  0  0  0  0
 44 45  1  0  0  0  0
 44128  1  0  0  0  0
 45 46  1  0  0  0  0
 47 48  2  0  0  0  0
 47 51  1  0  0  0  0
 48 49  1  0  0  0  0
 48129  1  0  0  0  0
 49 50  2  0  0  0  0
 49130  1  0  0  0  0
 50 51  1  0  0  0  0
 50 52  1  0  0  0  0
 51131  1  0  0  0  0
 52 53  1  0  0  0  0
 52 65  2  0  0  0  0
 53 54  1  0  0  0  0
 53 63  2  0  0  0  0
 54 55  1  0  0  0  0
 54 56  2  0  0  0  0
 56 57  1  0  0  0  0
 56132  1  0  0  0  0
 57 58  1  0  0  0  0
 57 62  2  0  0  0  0
 58 59  2  0  0  0  0
 58 60  2  0  0  0  0
 58 61  1  0  0  0  0
 62 63  1  0  0  0  0
 62133  1  0  0  0  0
 63 64  1  0  0  0  0
 65 66  1  0  0  0  0
 65 87  1  0  0  0  0
 66 67  2  0  0  0  0
 67 68  1  0  0  0  0
 67 86  1  0  0  0  0
 68 69  1  0  0  0  0
 68 81  2  0  0  0  0
 69 70  1  0  0  0  0
 69 79  2  0  0  0  0
 70 71  1  0  0  0  0
 70 72  2  0  0  0  0
 72 73  1  0  0  0  0
 72134  1  0  0  0  0
 73 74  1  0  0  0  0
 73 78  2  0  0  0  0
 74 75  2  0  0  0  0
 74 76  2  0  0  0  0
 74 77  1  0  0  0  0
 78 79  1  0  0  0  0
 78135  1  0  0  0  0
 79 80  1  0  0  0  0
 81 82  1  0  0  0  0
 81 85  1  0  0  0  0
 82 83  2  0  0  0  0
 82136  1  0  0  0  0
 83 84  1  0  0  0  0
 83137  1  0  0  0  0
 84 85  1  0  0  0  0
 85138  1  0  0  0  0
 86 87  2  0  0  0  0
 86139  1  0  0  0  0
 87140  1  0  0  0  0
 88 89  2  0  0  0  0
 88141  1  0  0  0  0
 89142  1  0  0  0  0
 90 91  1  0  0  0  0
 90143  1  0  0  0  0
 91144  1  0  0  0  0
M  CHG  4  11   1  43  -1  61  -1  77  -1
M  END
$$$$
