4_1_87
 OpenBabel04152300273D

150162  0  0  0  0  0  0  0  0999 V2000
    1.1226    0.3802   -0.5122 C   0  0  0  0  0  0  0  0  0  0  0  0
    0.5486   -1.0060   -0.6579 C   0  0  0  0  0  0  0  0  0  0  0  0
   -0.2237   -1.6608    0.1653 N   0  0  0  0  0  0  0  0  0  0  0  0
   -0.5977   -1.2103    1.4147 N   0  0  0  0  0  0  0  0  0  0  0  0
   -0.4133   -0.0068    2.0158 C   0  0  0  0  0  0  0  0  0  0  0  0
   -0.6082    1.1704    1.4696 N   0  0  0  0  0  0  0  0  0  0  0  0
    0.0794    2.1430    2.1660 C   0  0  0  0  0  0  0  0  0  0  0  0
    0.2961    3.4452    1.5614 C   0  0  0  0  0  0  0  0  0  0  0  0
   -0.7858    4.1343    0.9995 C   0  0  0  0  0  0  0  0  0  0  0  0
   -0.5849    5.3533    0.3466 C   0  0  0  0  0  0  0  0  0  0  0  0
    0.7026    5.8746    0.2343 C   0  0  0  0  0  0  0  0  0  0  0  0
    0.9478    7.3745   -0.5710 Cl  0  0  0  0  0  0  0  0  0  0  0  0
    1.7922    5.1843    0.7626 C   0  0  0  0  0  0  0  0  0  0  0  0
    1.5899    3.9704    1.4271 C   0  0  0  0  0  0  0  0  0  0  0  0
    0.5965    1.7351    3.3768 C   0  0  0  0  0  0  0  0  0  0  0  0
    0.2158    0.0761    3.6258 S   0  0  0  0  0  0  0  0  0  0  0  0
    0.9831   -1.7273   -1.8475 C   0  0  0  0  0  0  0  0  0  0  0  0
    0.1393   -2.2976   -2.7653 N   0  0  0  0  0  0  0  0  0  0  0  0
    0.8662   -2.6898   -3.8087 N   0  0  0  0  0  0  0  0  0  0  0  0
    2.1641   -2.5048   -3.4994 N   0  0  0  0  0  0  0  0  0  0  0  0
    3.2187   -2.9090   -4.3325 C   0  0  0  0  0  0  0  0  0  0  0  0
    3.3795   -2.3373   -5.5928 C   0  0  0  0  0  0  0  0  0  0  0  0
    4.6047   -2.5109   -6.2504 C   0  0  0  0  0  0  0  0  0  0  0  0
    5.6381   -3.2817   -5.6777 C   0  0  0  0  0  0  0  0  0  0  0  0
    6.9524   -3.3204   -6.3810 C   0  0  0  0  0  0  0  0  0  0  0  0
    6.9810   -3.0892   -7.5895 O   0  0  0  0  0  0  0  0  0  0  0  0
    8.1495   -3.5543   -5.7466 N   0  0  0  0  0  0  0  0  0  0  0  0
    8.5092   -3.7981   -4.3595 C   0  0  0  0  0  0  0  0  0  0  0  0
    8.7005   -5.2935   -4.0742 C   0  0  0  0  0  0  0  0  0  0  0  0
    9.9694   -5.9244   -4.6651 C   0  0  0  0  0  0  0  0  0  0  0  0
   11.2824   -5.3704   -4.1232 C   0  0  0  0  0  0  0  0  0  0  0  0
   11.4299   -5.5651   -2.6840 N   0  0  0  0  0  0  0  0  0  0  0  0
   12.3866   -5.0190   -1.8477 C   0  0  0  0  0  0  0  0  0  0  0  0
   12.6745   -5.5727   -0.7972 O   0  0  0  0  0  0  0  0  0  0  0  0
   13.0509   -3.7600   -2.2429 C   0  0  0  0  0  0  0  0  0  0  0  0
   14.4172   -3.5797   -2.0324 C   0  0  0  0  0  0  0  0  0  0  0  0
   15.0209   -2.4222   -2.5186 C   0  0  0  0  0  0  0  0  0  0  0  0
   14.2704   -1.4840   -3.2571 C   0  0  0  0  0  0  0  0  0  0  0  0
   14.9622   -0.4154   -3.9825 C   0  0  0  0  0  0  0  0  0  0  0  0
   16.1353   -0.8986   -4.7589 C   0  0  0  0  0  0  0  0  0  0  0  0
   17.3766   -0.7422   -4.4428 N   0  0  0  0  0  0  0  0  0  0  0  0
   18.1062   -1.3030   -5.4816 C   0  0  0  0  0  0  0  0  0  0  0  0
   19.3413   -0.8212   -5.7928 C   0  0  0  0  0  0  0  0  0  0  0  0
   19.8737   -0.7296   -7.2026 C   0  0  0  0  0  0  0  0  0  0  0  0
   21.2169   -0.3540   -7.4082 C   0  0  0  0  0  0  0  0  0  0  0  0
   22.0792   -0.3097   -6.3799 F   0  0  0  0  0  0  0  0  0  0  0  0
   21.6930    0.0651   -8.6503 C   0  0  0  0  0  0  0  0  0  0  0  0
   20.8334    0.0669   -9.7444 C   0  0  0  0  0  0  0  0  0  0  0  0
   21.4269    0.6652  -11.3343 S   0  0  0  0  0  0  0  0  0  0  0  0
   21.5855    2.0896  -11.0670 O   0  0  0  0  0  0  0  0  0  0  0  0
   22.6596   -0.0981  -11.4992 O   0  0  0  0  0  0  0  0  0  0  0  0
   20.3478    0.3073  -12.2499 O   0  5  0  0  0  0  0  0  0  0  0  0
   19.5227   -0.3569   -9.6118 C   0  0  0  0  0  0  0  0  0  0  0  0
   19.0549   -0.7163   -8.3545 C   0  0  0  0  0  0  0  0  0  0  0  0
   17.7394   -0.9545   -8.3042 F   0  0  0  0  0  0  0  0  0  0  0  0
   19.8788   -0.0297   -4.7089 C   0  0  0  0  0  0  0  0  0  0  0  0
   20.0743   -0.2530   -3.3568 C   0  0  0  0  0  0  0  0  0  0  0  0
   19.6800    0.9633   -2.7245 C   0  0  0  0  0  0  0  0  0  0  0  0
   19.3709    1.8843   -3.7252 C   0  0  0  0  0  0  0  0  0  0  0  0
   19.9124    1.3368   -4.8613 N   0  0  0  0  0  0  0  0  0  0  0  0
   18.6160    3.1179   -3.7110 C   0  0  0  0  0  0  0  0  0  0  0  0
   18.3967    3.7699   -2.3672 C   0  0  0  0  0  0  0  0  0  0  0  0
   17.1565    3.9002   -1.7152 C   0  0  0  0  0  0  0  0  0  0  0  0
   16.0258    3.4465   -2.2754 F   0  0  0  0  0  0  0  0  0  0  0  0
   17.0528    4.4506   -0.4337 C   0  0  0  0  0  0  0  0  0  0  0  0
   18.2116    4.8401    0.2378 C   0  0  0  0  0  0  0  0  0  0  0  0
   18.0839    5.5140    1.9083 S   0  0  0  0  0  0  0  0  0  0  0  0
   17.4528    6.8076    1.6698 O   0  0  0  0  0  0  0  0  0  0  0  0
   17.2578    4.5212    2.5893 O   0  0  0  0  0  0  0  0  0  0  0  0
   19.4720    5.5725    2.3610 O   0  5  0  0  0  0  0  0  0  0  0  0
   19.4597    4.6808   -0.3557 C   0  0  0  0  0  0  0  0  0  0  0  0
   19.5359    4.1666   -1.6463 C   0  0  0  0  0  0  0  0  0  0  0  0
   20.7586    4.0170   -2.1831 F   0  0  0  0  0  0  0  0  0  0  0  0
   17.9580    3.6079   -4.8035 C   0  0  0  0  0  0  0  0  0  0  0  0
   16.8876    4.4784   -4.6734 N   0  0  0  0  0  0  0  0  0  0  0  0
   16.1422    4.2378   -5.7176 C   0  0  0  0  0  0  0  0  0  0  0  0
   14.6596    4.1432   -5.6634 C   0  0  0  0  0  0  0  0  0  0  0  0
   13.7743    4.9467   -6.5576 C   0  0  0  0  0  0  0  0  0  0  0  0
   14.2233    6.1442   -7.1522 C   0  0  0  0  0  0  0  0  0  0  0  0
   15.3550    6.7269   -6.7270 F   0  0  0  0  0  0  0  0  0  0  0  0
   13.5712    6.7338   -8.2445 C   0  0  0  0  0  0  0  0  0  0  0  0
   12.4264    6.1311   -8.7619 C   0  0  0  0  0  0  0  0  0  0  0  0
   11.6889    6.7657  -10.2889 S   0  0  0  0  0  0  0  0  0  0  0  0
   11.1139    8.0306   -9.8449 O   0  0  0  0  0  0  0  0  0  0  0  0
   12.8446    6.8657  -11.1735 O   0  0  0  0  0  0  0  0  0  0  0  0
   10.7205    5.7333  -10.6505 O   0  5  0  0  0  0  0  0  0  0  0  0
   11.9101    4.9876   -8.1659 C   0  0  0  0  0  0  0  0  0  0  0  0
   12.5819    4.4131   -7.0858 C   0  0  0  0  0  0  0  0  0  0  0  0
   12.0776    3.2578   -6.6291 F   0  0  0  0  0  0  0  0  0  0  0  0
   14.3612    3.0258   -4.9455 C   0  0  0  0  0  0  0  0  0  0  0  0
   13.1494    2.6910   -4.2181 C   0  0  0  0  0  0  0  0  0  0  0  0
   13.2988    1.4731   -3.6485 C   0  0  0  0  0  0  0  0  0  0  0  0
   14.5531    0.8678   -4.1005 C   0  0  0  0  0  0  0  0  0  0  0  0
   15.1677    1.9087   -4.7366 N   0  0  0  0  0  0  0  0  0  0  0  0
   16.8182    3.5888   -6.8299 C   0  0  0  0  0  0  0  0  0  0  0  0
   17.9046    3.1466   -6.1911 C   0  0  0  0  0  0  0  0  0  0  0  0
   17.1798   -2.1206   -6.2219 C   0  0  0  0  0  0  0  0  0  0  0  0
   15.9217   -1.8119   -5.8933 C   0  0  0  0  0  0  0  0  0  0  0  0
   12.9065   -1.6719   -3.4329 C   0  0  0  0  0  0  0  0  0  0  0  0
   12.2905   -2.7567   -2.8445 C   0  0  0  0  0  0  0  0  0  0  0  0
    5.3792   -3.9661   -4.4905 C   0  0  0  0  0  0  0  0  0  0  0  0
    4.1929   -3.7528   -3.7966 C   0  0  0  0  0  0  0  0  0  0  0  0
    2.2901   -1.8485   -2.2924 C   0  0  0  0  0  0  0  0  0  0  0  0
    3.5751   -1.3122   -1.7674 C   0  0  0  0  0  0  0  0  0  0  0  0
    1.6710    0.4672    0.4278 H   0  0  0  0  0  0  0  0  0  0  0  0
    0.3199    1.1111   -0.6090 H   0  0  0  0  0  0  0  0  0  0  0  0
    1.8209    0.6286   -1.3144 H   0  0  0  0  0  0  0  0  0  0  0  0
   -0.8620   -1.9673    2.0423 H   0  0  0  0  0  0  0  0  0  0  0  0
   -1.7877    3.7127    1.0538 H   0  0  0  0  0  0  0  0  0  0  0  0
   -1.4322    5.8803   -0.0831 H   0  0  0  0  0  0  0  0  0  0  0  0
    2.7999    5.5765    0.6472 H   0  0  0  0  0  0  0  0  0  0  0  0
    2.4546    3.4252    1.7991 H   0  0  0  0  0  0  0  0  0  0  0  0
    1.1732    2.2975    4.0969 H   0  0  0  0  0  0  0  0  0  0  0  0
    2.6198   -1.6896   -6.0251 H   0  0  0  0  0  0  0  0  0  0  0  0
    4.7716   -2.0045   -7.2017 H   0  0  0  0  0  0  0  0  0  0  0  0
    8.9212   -3.4553   -6.3981 H   0  0  0  0  0  0  0  0  0  0  0  0
    9.4239   -3.2361   -4.1649 H   0  0  0  0  0  0  0  0  0  0  0  0
    7.7538   -3.3684   -3.6972 H   0  0  0  0  0  0  0  0  0  0  0  0
    8.6897   -5.4525   -2.9898 H   0  0  0  0  0  0  0  0  0  0  0  0
    7.8502   -5.8547   -4.4801 H   0  0  0  0  0  0  0  0  0  0  0  0
    9.9393   -7.0029   -4.4681 H   0  0  0  0  0  0  0  0  0  0  0  0
    9.9615   -5.8039   -5.7549 H   0  0  0  0  0  0  0  0  0  0  0  0
   12.1290   -5.8827   -4.5926 H   0  0  0  0  0  0  0  0  0  0  0  0
   11.3725   -4.3266   -4.4152 H   0  0  0  0  0  0  0  0  0  0  0  0
   11.0180   -6.3945   -2.2750 H   0  0  0  0  0  0  0  0  0  0  0  0
   15.0167   -4.3312   -1.5249 H   0  0  0  0  0  0  0  0  0  0  0  0
   16.0942   -2.2777   -2.3738 H   0  0  0  0  0  0  0  0  0  0  0  0
   22.7106    0.4283   -8.7584 H   0  0  0  0  0  0  0  0  0  0  0  0
   18.8398   -0.3449  -10.4566 H   0  0  0  0  0  0  0  0  0  0  0  0
   20.1373   -1.2165   -2.8681 H   0  0  0  0  0  0  0  0  0  0  0  0
   19.4436    1.0706   -1.6729 H   0  0  0  0  0  0  0  0  0  0  0  0
   19.9789    1.7948   -5.7516 H   0  0  0  0  0  0  0  0  0  0  0  0
   16.0828    4.5564    0.0439 H   0  0  0  0  0  0  0  0  0  0  0  0
   20.3683    4.9434    0.1745 H   0  0  0  0  0  0  0  0  0  0  0  0
   13.9801    7.6202   -8.7231 H   0  0  0  0  0  0  0  0  0  0  0  0
   11.0290    4.5013   -8.5741 H   0  0  0  0  0  0  0  0  0  0  0  0
   12.3397    3.3795   -4.0401 H   0  0  0  0  0  0  0  0  0  0  0  0
   12.6087    1.0261   -2.9554 H   0  0  0  0  0  0  0  0  0  0  0  0
   16.1628    1.8896   -4.9027 H   0  0  0  0  0  0  0  0  0  0  0  0
   16.4328    3.3624   -7.8054 H   0  0  0  0  0  0  0  0  0  0  0  0
   18.5486    2.4500   -6.6891 H   0  0  0  0  0  0  0  0  0  0  0  0
   17.4722   -2.8216   -6.9895 H   0  0  0  0  0  0  0  0  0  0  0  0
   14.9947   -2.1807   -6.2844 H   0  0  0  0  0  0  0  0  0  0  0  0
   12.3232   -1.0017   -4.0578 H   0  0  0  0  0  0  0  0  0  0  0  0
   11.2154   -2.8447   -2.9191 H   0  0  0  0  0  0  0  0  0  0  0  0
    6.0883   -4.6569   -4.0613 H   0  0  0  0  0  0  0  0  0  0  0  0
    4.0450   -4.2356   -2.8325 H   0  0  0  0  0  0  0  0  0  0  0  0
    4.3850   -2.0428   -1.7959 H   0  0  0  0  0  0  0  0  0  0  0  0
    3.8797   -0.4380   -2.3549 H   0  0  0  0  0  0  0  0  0  0  0  0
    3.4830   -0.9987   -0.7236 H   0  0  0  0  0  0  0  0  0  0  0  0
  1  2  1  0  0  0  0
  1105  1  0  0  0  0
  1106  1  0  0  0  0
  1107  1  0  0  0  0
  2  3  2  0  0  0  0
  2 17  1  0  0  0  0
  3  4  1  0  0  0  0
  4  5  1  0  0  0  0
  4108  1  0  0  0  0
  5  6  2  0  0  0  0
  5 16  1  0  0  0  0
  6  7  1  0  0  0  0
  7  8  1  0  0  0  0
  7 15  2  0  0  0  0
  8  9  1  0  0  0  0
  8 14  2  0  0  0  0
  9 10  2  0  0  0  0
  9109  1  0  0  0  0
 10 11  1  0  0  0  0
 10110  1  0  0  0  0
 11 12  1  0  0  0  0
 11 13  2  0  0  0  0
 13 14  1  0  0  0  0
 13111  1  0  0  0  0
 14112  1  0  0  0  0
 15 16  1  0  0  0  0
 15113  1  0  0  0  0
 17 18  1  0  0  0  0
 17103  2  0  0  0  0
 18 19  2  0  0  0  0
 19 20  1  0  0  0  0
 20 21  1  0  0  0  0
 20103  1  0  0  0  0
 21 22  1  0  0  0  0
 21102  2  0  0  0  0
 22 23  2  0  0  0  0
 22114  1  0  0  0  0
 23 24  1  0  0  0  0
 23115  1  0  0  0  0
 24 25  1  0  0  0  0
 24101  2  0  0  0  0
 25 26  2  0  0  0  0
 25 27  1  0  0  0  0
 27 28  1  0  0  0  0
 27116  1  0  0  0  0
 28 29  1  0  0  0  0
 28117  1  0  0  0  0
 28118  1  0  0  0  0
 29 30  1  0  0  0  0
 29119  1  0  0  0  0
 29120  1  0  0  0  0
 30 31  1  0  0  0  0
 30121  1  0  0  0  0
 30122  1  0  0  0  0
 31 32  1  0  0  0  0
 31123  1  0  0  0  0
 31124  1  0  0  0  0
 32 33  1  0  0  0  0
 32125  1  0  0  0  0
 33 34  2  0  0  0  0
 33 35  1  0  0  0  0
 35 36  1  0  0  0  0
 35100  2  0  0  0  0
 36 37  2  0  0  0  0
 36126  1  0  0  0  0
 37 38  1  0  0  0  0
 37127  1  0  0  0  0
 38 39  1  0  0  0  0
 38 99  2  0  0  0  0
 39 40  1  0  0  0  0
 39 93  2  0  0  0  0
 40 41  2  0  0  0  0
 40 98  1  0  0  0  0
 41 42  1  0  0  0  0
 42 43  2  0  0  0  0
 42 97  1  0  0  0  0
 43 44  1  0  0  0  0
 43 56  1  0  0  0  0
 44 45  1  0  0  0  0
