4_1_8764
 OpenBabel04152301373D

135145  0  0  1  0  0  0  0  0999 V2000
    3.0828  -12.6688   -2.9910 O   0  0  0  0  0  0  0  0  0  0  0  0
    2.7486  -11.5115   -3.2355 C   0  0  0  0  0  0  0  0  0  0  0  0
    3.7150  -10.6024   -3.5991 N   0  0  0  0  0  0  0  0  0  0  0  0
    3.5909   -9.1847   -3.8823 C   0  0  0  0  0  0  0  0  0  0  0  0
    4.8063   -8.3611   -3.4607 C   0  0  0  0  0  0  0  0  0  0  0  0
    6.1656   -8.7838   -4.0287 C   0  0  0  0  0  0  0  0  0  0  0  0
    6.2241   -9.0550   -5.5297 C   0  0  0  0  0  0  0  0  0  0  0  0
    5.7572   -7.9413   -6.3330 N   0  0  0  0  0  0  0  0  0  0  0  0
    6.4161   -7.2048   -7.2871 C   0  0  0  0  0  0  0  0  0  0  0  0
    5.7639   -6.3804   -7.9253 O   0  0  0  0  0  0  0  0  0  0  0  0
    7.8338   -7.4164   -7.4927 C   0  0  0  0  0  0  0  0  0  0  0  0
    8.3260   -8.7536   -8.4270 S   0  0  0  0  0  0  0  0  0  0  0  0
    9.9876   -8.3639   -8.2589 C   0  0  0  0  0  0  0  0  0  0  0  0
   11.0773   -9.1025   -8.7634 C   0  0  0  0  0  0  0  0  0  0  0  0
   12.3740   -8.6368   -8.5457 C   0  0  0  0  0  0  0  0  0  0  0  0
   12.5864   -7.4610   -7.8448 C   0  0  0  0  0  0  0  0  0  0  0  0
   11.5019   -6.7327   -7.3454 C   0  0  0  0  0  0  0  0  0  0  0  0
   10.1665   -7.1765   -7.5439 C   0  0  0  0  0  0  0  0  0  0  0  0
    8.8957   -6.5986   -7.1281 C   0  0  0  0  0  0  0  0  0  0  0  0
    8.7727   -5.3135   -6.3565 C   0  0  0  0  0  0  0  0  0  0  0  0
    7.8966   -3.9606   -7.2052 S   0  0  0  0  0  0  0  0  0  0  0  0
    8.6282   -4.0153   -8.8841 C   0  0  0  0  0  0  0  0  0  0  0  0
   10.0342   -3.4155   -8.9046 C   0  0  2  0  0  0  0  0  0  0  0  0
   10.0061   -2.0338   -8.5014 O   0  0  0  0  0  0  0  0  0  0  0  0
   10.6300   -3.4645  -10.3144 C   0  0  0  0  0  0  0  0  0  0  0  0
   11.9175   -2.8450  -10.3017 O   0  0  0  0  0  0  0  0  0  0  0  0
    1.3280  -11.1080   -3.0877 C   0  0  0  0  0  0  0  0  0  0  0  0
    0.6810  -10.2974   -4.0244 C   0  0  0  0  0  0  0  0  0  0  0  0
   -0.6307   -9.8754   -3.7942 C   0  0  0  0  0  0  0  0  0  0  0  0
   -1.3295  -10.3053   -2.6552 C   0  0  0  0  0  0  0  0  0  0  0  0
   -2.6989   -9.7964   -2.3971 C   0  0  0  0  0  0  0  0  0  0  0  0
   -2.9354   -8.7472   -1.3469 C   0  0  0  0  0  0  0  0  0  0  0  0
   -4.0459   -8.1288   -1.0346 N   0  0  0  0  0  0  0  0  0  0  0  0
   -3.7257   -7.2799    0.0163 C   0  0  0  0  0  0  0  0  0  0  0  0
   -4.5284   -6.4237    0.6930 C   0  0  0  0  0  0  0  0  0  0  0  0
   -3.8944   -5.6605    1.8149 C   0  0  0  0  0  0  0  0  0  0  0  0
   -3.2177   -4.4547    1.5803 C   0  0  0  0  0  0  0  0  0  0  0  0
   -3.1419   -3.9535    0.3376 F   0  0  0  0  0  0  0  0  0  0  0  0
   -2.5711   -3.7760    2.6081 C   0  0  0  0  0  0  0  0  0  0  0  0
   -2.6002   -4.3130    3.8963 C   0  0  0  0  0  0  0  0  0  0  0  0
   -1.7197   -3.4747    5.2313 S   0  0  0  0  0  0  0  0  0  0  0  0
   -0.4203   -4.1378    5.1784 O   0  0  0  0  0  0  0  0  0  0  0  0
   -1.7322   -2.0779    4.8081 O   0  0  0  0  0  0  0  0  0  0  0  0
   -2.5366   -3.7770    6.4023 O   0  5  0  0  0  0  0  0  0  0  0  0
   -3.2948   -5.4924    4.1698 C   0  0  0  0  0  0  0  0  0  0  0  0
   -3.9309   -6.1566    3.1265 C   0  0  0  0  0  0  0  0  0  0  0  0
   -4.5567   -7.3133    3.3945 F   0  0  0  0  0  0  0  0  0  0  0  0
   -5.9217   -6.2077    0.4125 C   0  0  0  0  0  0  0  0  0  0  0  0
   -6.8089   -5.3498    1.0404 C   0  0  0  0  0  0  0  0  0  0  0  0
   -8.0564   -5.4717    0.4121 C   0  0  0  0  0  0  0  0  0  0  0  0
   -7.9418   -6.4046   -0.6054 C   0  0  0  0  0  0  0  0  0  0  0  0
   -6.6304   -6.8498   -0.5906 N   0  0  0  0  0  0  0  0  0  0  0  0
   -8.9478   -6.8576   -1.5299 C   0  0  0  0  0  0  0  0  0  0  0  0
  -10.3132   -6.2488   -1.4437 C   0  0  0  0  0  0  0  0  0  0  0  0
  -11.3156   -6.8364   -0.6583 C   0  0  0  0  0  0  0  0  0  0  0  0
  -11.0674   -7.9702    0.0159 F   0  0  0  0  0  0  0  0  0  0  0  0
  -12.5862   -6.2774   -0.5681 C   0  0  0  0  0  0  0  0  0  0  0  0
  -12.8628   -5.1081   -1.2786 C   0  0  0  0  0  0  0  0  0  0  0  0
  -14.5029   -4.3605   -1.1610 S   0  0  0  0  0  0  0  0  0  0  0  0
  -15.1851   -4.9735   -2.2955 O   0  0  0  0  0  0  0  0  0  0  0  0
  -14.9639   -4.7842    0.1579 O   0  0  0  0  0  0  0  0  0  0  0  0
  -14.2208   -2.9337   -1.2877 O   0  5  0  0  0  0  0  0  0  0  0  0
  -11.8821   -4.4897   -2.0566 C   0  0  0  0  0  0  0  0  0  0  0  0
  -10.6190   -5.0674   -2.1344 C   0  0  0  0  0  0  0  0  0  0  0  0
   -9.6906   -4.4725   -2.8998 F   0  0  0  0  0  0  0  0  0  0  0  0
   -8.7592   -7.8054   -2.4799 C   0  0  0  0  0  0  0  0  0  0  0  0
   -7.6090   -8.5272   -2.7720 N   0  0  0  0  0  0  0  0  0  0  0  0
   -7.9308   -9.3249   -3.7606 C   0  0  0  0  0  0  0  0  0  0  0  0
   -7.0749  -10.3252   -4.4778 C   0  0  0  0  0  0  0  0  0  0  0  0
   -7.6092  -11.1023   -5.6185 C   0  0  0  0  0  0  0  0  0  0  0  0
   -7.5704  -10.5758   -6.9168 C   0  0  0  0  0  0  0  0  0  0  0  0
   -7.0983   -9.3371   -7.1246 F   0  0  0  0  0  0  0  0  0  0  0  0
   -7.9977  -11.3169   -8.0121 C   0  0  0  0  0  0  0  0  0  0  0  0
   -8.4763  -12.6115   -7.8045 C   0  0  0  0  0  0  0  0  0  0  0  0
   -8.9476  -13.6279   -9.2217 S   0  0  0  0  0  0  0  0  0  0  0  0
  -10.3864  -13.4002   -9.2791 O   0  0  0  0  0  0  0  0  0  0  0  0
   -8.1675  -13.0492  -10.3117 O   0  0  0  0  0  0  0  0  0  0  0  0
   -8.5294  -14.9640   -8.8074 O   0  5  0  0  0  0  0  0  0  0  0  0
   -8.5355  -13.1618   -6.5221 C   0  0  0  0  0  0  0  0  0  0  0  0
   -8.1059  -12.3998   -5.4417 C   0  0  0  0  0  0  0  0  0  0  0  0
   -8.1521  -12.9403   -4.2146 F   0  0  0  0  0  0  0  0  0  0  0  0
   -5.7890  -10.4931   -4.1176 C   0  0  0  0  0  0  0  0  0  0  0  0
   -4.8469  -11.4134   -4.7505 C   0  0  0  0  0  0  0  0  0  0  0  0
   -3.6414  -11.2716   -4.1745 C   0  0  0  0  0  0  0  0  0  0  0  0
   -3.7296  -10.2440   -3.1370 C   0  0  0  0  0  0  0  0  0  0  0  0
   -5.0490   -9.8697   -3.1438 N   0  0  0  0  0  0  0  0  0  0  0  0
   -9.3245   -9.2016   -4.2105 C   0  0  0  0  0  0  0  0  0  0  0  0
   -9.7840   -8.2558   -3.4006 C   0  0  0  0  0  0  0  0  0  0  0  0
   -2.3146   -7.4621    0.2896 C   0  0  0  0  0  0  0  0  0  0  0  0
   -1.7736   -8.3432   -0.5407 C   0  0  0  0  0  0  0  0  0  0  0  0
   -0.7087  -11.1953   -1.7686 C   0  0  0  0  0  0  0  0  0  0  0  0
    0.6173  -11.5875   -1.9798 C   0  0  0  0  0  0  0  0  0  0  0  0
    4.6257  -10.9678   -3.6790 H   0  0  0  0  0  0  0  0  0  0  0  0
    2.7337   -8.8109   -3.3623 H   0  0  0  0  0  0  0  0  0  0  0  0
    3.5021   -9.0865   -4.9441 H   0  0  0  0  0  0  0  0  0  0  0  0
    4.8737   -8.4084   -2.3939 H   0  0  0  0  0  0  0  0  0  0  0  0
    4.6309   -7.3837   -3.8593 H   0  0  0  0  0  0  0  0  0  0  0  0
    6.4636   -9.6796   -3.5250 H   0  0  0  0  0  0  0  0  0  0  0  0
    6.8117   -7.9462   -3.8677 H   0  0  0  0  0  0  0  0  0  0  0  0
    5.6146   -9.9077   -5.7447 H   0  0  0  0  0  0  0  0  0  0  0  0
    7.2509   -9.2191   -5.7821 H   0  0  0  0  0  0  0  0  0  0  0  0
    4.8246   -7.6717   -6.1693 H   0  0  0  0  0  0  0  0  0  0  0  0
   10.9176   -9.9771   -9.2874 H   0  0  0  0  0  0  0  0  0  0  0  0
   13.1791   -9.1708   -8.9086 H   0  0  0  0  0  0  0  0  0  0  0  0
   13.5486   -7.1212   -7.6906 H   0  0  0  0  0  0  0  0  0  0  0  0
   11.6742   -5.8588   -6.8243 H   0  0  0  0  0  0  0  0  0  0  0  0
    9.7606   -4.9722   -6.1274 H   0  0  0  0  0  0  0  0  0  0  0  0
    8.1824   -5.5469   -5.4951 H   0  0  0  0  0  0  0  0  0  0  0  0
    8.0041   -3.4605   -9.5532 H   0  0  0  0  0  0  0  0  0  0  0  0
    8.6966   -5.0394   -9.1864 H   0  0  0  0  0  0  0  0  0  0  0  0
   10.6280   -3.9934   -8.2277 H   0  0  0  0  0  0  0  0  0  0  0  0
    9.4642   -1.5259   -9.1253 H   0  0  0  0  0  0  0  0  0  0  0  0
    9.9881   -2.9421  -10.9926 H   0  0  0  0  0  0  0  0  0  0  0  0
   10.7238   -4.4826  -10.6300 H   0  0  0  0  0  0  0  0  0  0  0  0
   11.8296   -1.9224  -10.0153 H   0  0  0  0  0  0  0  0  0  0  0  0
    1.1719  -10.0107   -4.8857 H   0  0  0  0  0  0  0  0  0  0  0  0
   -1.0899   -9.2421   -4.4673 H   0  0  0  0  0  0  0  0  0  0  0  0
   -2.0775   -2.8892    2.4211 H   0  0  0  0  0  0  0  0  0  0  0  0
   -3.3357   -5.8657    5.1311 H   0  0  0  0  0  0  0  0  0  0  0  0
   -6.5897   -4.7278    1.8342 H   0  0  0  0  0  0  0  0  0  0  0  0
   -8.9133   -4.9549    0.6645 H   0  0  0  0  0  0  0  0  0  0  0  0
   -6.2564   -7.5238   -1.2030 H   0  0  0  0  0  0  0  0  0  0  0  0
  -13.3132   -6.7204    0.0152 H   0  0  0  0  0  0  0  0  0  0  0  0
  -12.0911   -3.6171   -2.5663 H   0  0  0  0  0  0  0  0  0  0  0  0
   -7.9617  -10.9168   -8.9627 H   0  0  0  0  0  0  0  0  0  0  0  0
   -8.8927  -14.1194   -6.3788 H   0  0  0  0  0  0  0  0  0  0  0  0
   -5.0714  -12.0672   -5.5168 H   0  0  0  0  0  0  0  0  0  0  0  0
   -2.7915  -11.8014   -4.4235 H   0  0  0  0  0  0  0  0  0  0  0  0
   -5.4286   -9.2173   -2.5117 H   0  0  0  0  0  0  0  0  0  0  0  0
   -9.8161   -9.7150   -4.9587 H   0  0  0  0  0  0  0  0  0  0  0  0
  -10.7480   -7.8880   -3.4235 H   0  0  0  0  0  0  0  0  0  0  0  0
   -1.7972   -6.9696    1.0344 H   0  0  0  0  0  0  0  0  0  0  0  0
   -0.7941   -8.6619   -0.6045 H   0  0  0  0  0  0  0  0  0  0  0  0
   -1.2311  -11.5623   -0.9578 H   0  0  0  0  0  0  0  0  0  0  0  0
    1.0740  -12.2329   -1.3166 H   0  0  0  0  0  0  0  0  0  0  0  0
  1  2  2  0  0  0  0
  2  3  1  0  0  0  0
  2 27  1  0  0  0  0
  3  4  1  0  0  0  0
  3 93  1  0  0  0  0
  4  5  1  0  0  0  0
  4 94  1  0  0  0  0
  4 95  1  0  0  0  0
  5  6  1  0  0  0  0
  5 96  1  0  0  0  0
  5 97  1  0  0  0  0
  6  7  1  0  0  0  0
  6 98  1  0  0  0  0
  6 99  1  0  0  0  0
  7  8  1  0  0  0  0
  7100  1  0  0  0  0
  7101  1  0  0  0  0
  8  9  1  0  0  0  0
  8102  1  0  0  0  0
  9 10  2  0  0  0  0
  9 11  1  0  0  0  0
 11 12  1  0  0  0  0
 11 19  2  0  0  0  0
 12 13  1  0  0  0  0
 13 14  1  0  0  0  0
 13 18  2  0  0  0  0
 14 15  2  0  0  0  0
 14103  1  0  0  0  0
 15 16  1  0  0  0  0
 15104  1  0  0  0  0
 16 17  2  0  0  0  0
 16105  1  0  0  0  0
 17 18  1  0  0  0  0
 17106  1  0  0  0  0
 18 19  1  0  0  0  0
 19 20  1  0  0  0  0
 20 21  1  0  0  0  0
 20107  1  0  0  0  0
 20108  1  0  0  0  0
 21 22  1  0  0  0  0
 22109  1  0  0  0  0
 22110  1  0  0  0  0
 23 25  1  0  0  0  0
 23 24  1  0  0  0  0
 23 22  1  0  0  0  0
 23111  1  1  0  0  0
 24112  1  0  0  0  0
 25 26  1  0  0  0  0
 25113  1  0  0  0  0
 25114  1  0  0  0  0
 26115  1  0  0  0  0
 27 28  1  0  0  0  0
 27 92  2  0  0  0  0
 28 29  2  0  0  0  0
 28116  1  0  0  0  0
 29 30  1  0  0  0  0
 29117  1  0  0  0  0
 30 31  1  0  0  0  0
 30 91  2  0  0  0  0
 31 32  1  0  0  0  0
 31 85  2  0  0  0  0
 32 33  2  0  0  0  0
 32 90  1  0  0  0  0
 33 34  1  0  0  0  0
 34 35  2  0  0  0  0
 34 89  1  0  0  0  0
 35 36  1  0  0  0  0
 35 48  1  0  0  0  0
 36 37  1  0  0  0  0
 36 46  2  0  0  0  0
 37 38  1  0  0  0  0
 37 39  2  0  0  0  0
 39 40  1  0  0  0  0
 39118  1  0  0  0  0
 40 41  1  0  0  0  0
 40 45  2  0  0  0  0
 41 42  2  0  0  0  0
 41 43  2  0  0  0  0
 41 44  1  0  0  0  0
 45 46  1  0  0  0  0
 45119  1  0  0  0  0
 46 47  1  0  0  0  0
 48 49  2  0  0  0  0
 48 52  1  0  0  0  0
 49 50  1  0  0  0  0
 49120  1  0  0  0  0
 50 51  2  0  0  0  0
 50121  1  0  0  0  0
 51 52  1  0  0  0  0
 51 53  1  0  0  0  0
 52122  1  0  0  0  0
 53 54  1  0  0  0  0
 53 66  2  0  0  0  0
 54 55  1  0  0  0  0
 54 64  2  0  0  0  0
 55 56  1  0  0  0  0
 55 57  2  0  0  0  0
 57 58  1  0  0  0  0
 57123  1  0  0  0  0
 58 59  1  0  0  0  0
 58 63  2  0  0  0  0
 59 60  2  0  0  0  0
 59 61  2  0  0  0  0
 59 62  1  0  0  0  0
 63 64  1  0  0  0  0
 63124  1  0  0  0  0
 64 65  1  0  0  0  0
 66 67  1  0  0  0  0
 66 88  1  0  0  0  0
 67 68  2  0  0  0  0
 68 69  1  0  0  0  0
 68 87  1  0  0  0  0
 69 70  1  0  0  0  0
 69 82  2  0  0  0  0
 70 71  1  0  0  0  0
 70 80  2  0  0  0  0
 71 72  1  0  0  0  0
 71 73  2  0  0  0  0
 73 74  1  0  0  0  0
 73125  1  0  0  0  0
 74 75  1  0  0  0  0
 74 79  2  0  0  0  0
 75 76  2  0  0  0  0
 75 77  2  0  0  0  0
 75 78  1  0  0  0  0
 79 80  1  0  0  0  0
 79126  1  0  0  0  0
 80 81  1  0  0  0  0
 82 83  1  0  0  0  0
 82 86  1  0  0  0  0
 83 84  2  0  0  0  0
 83127  1  0  0  0  0
 84 85  1  0  0  0  0
 84128  1  0  0  0  0
 85 86  1  0  0  0  0
 86129  1  0  0  0  0
 87 88  2  0  0  0  0
 87130  1  0  0  0  0
 88131  1  0  0  0  0
 89 90  2  0  0  0  0
 89132  1  0  0  0  0
 90133  1  0  0  0  0
 91 92  1  0  0  0  0
 91134  1  0  0  0  0
 92135  1  0  0  0  0
M  CHG  3  44  -1  62  -1  78  -1
M  END
$$$$
