4_1_9095
 OpenBabel04152301373D

140149  0  0  1  0  0  0  0  0999 V2000
    0.9425    1.3770    4.0118 C   0  0  0  0  0  0  0  0  0  0  0  0
   -0.1367    1.3349    3.4948 C   0  0  0  0  0  0  0  0  0  0  0  0
   -1.4538    0.9833    2.9437 C   0  0  0  0  0  0  0  0  0  0  0  0
   -2.2417    1.9319    2.1583 N   0  3  2  0  0  0  0  0  0  0  0  0
   -3.6907    1.5264    2.1628 C   0  0  0  0  0  0  0  0  0  0  0  0
   -4.2554    1.0311    3.5146 C   0  0  0  0  0  0  0  0  0  0  0  0
   -4.8008    1.7991    4.3093 O   0  0  0  0  0  0  0  0  0  0  0  0
   -4.1759   -0.3028    3.8543 N   0  0  0  0  0  0  0  0  0  0  0  0
   -3.5496   -1.4216    3.1604 C   0  0  0  0  0  0  0  0  0  0  0  0
   -2.2501   -1.8982    3.8312 C   0  0  0  0  0  0  0  0  0  0  0  0
   -2.4150   -2.7336    5.0833 C   0  0  0  0  0  0  0  0  0  0  0  0
   -3.0408   -4.0809    4.8223 C   0  0  0  0  0  0  0  0  0  0  0  0
   -2.2940   -4.8726    3.8516 N   0  0  0  0  0  0  0  0  0  0  0  0
   -1.9225   -6.1917    3.9329 C   0  0  0  0  0  0  0  0  0  0  0  0
   -1.1537   -6.6722    3.1078 O   0  0  0  0  0  0  0  0  0  0  0  0
   -2.4475   -7.0007    5.0480 C   0  0  0  0  0  0  0  0  0  0  0  0
   -1.5890   -7.8514    5.7412 C   0  0  0  0  0  0  0  0  0  0  0  0
   -2.0669   -8.5261    6.8626 C   0  0  0  0  0  0  0  0  0  0  0  0
   -3.3692   -8.2860    7.3354 C   0  0  0  0  0  0  0  0  0  0  0  0
   -3.9066   -9.0102    8.5101 C   0  0  0  0  0  0  0  0  0  0  0  0
   -5.1241   -9.8841    8.3461 C   0  0  0  0  0  0  0  0  0  0  0  0
   -5.7528  -10.5972    9.2429 N   0  0  0  0  0  0  0  0  0  0  0  0
   -6.8351  -11.1661    8.5814 C   0  0  0  0  0  0  0  0  0  0  0  0
   -7.7305  -12.0676    9.0448 C   0  0  0  0  0  0  0  0  0  0  0  0
   -8.8048  -12.5407    8.1029 C   0  0  0  0  0  0  0  0  0  0  0  0
   -8.5138  -13.3358    6.9814 C   0  0  0  0  0  0  0  0  0  0  0  0
   -7.2419  -13.6437    6.6802 F   0  0  0  0  0  0  0  0  0  0  0  0
   -9.5157  -13.7886    6.1295 C   0  0  0  0  0  0  0  0  0  0  0  0
  -10.8441  -13.4725    6.4178 C   0  0  0  0  0  0  0  0  0  0  0  0
  -12.1338  -14.1004    5.3229 S   0  0  0  0  0  0  0  0  0  0  0  0
  -11.9041  -13.3095    4.1176 O   0  0  0  0  0  0  0  0  0  0  0  0
  -11.7947  -15.5163    5.2258 O   0  0  0  0  0  0  0  0  0  0  0  0
  -13.3676  -13.8011    6.0428 O   0  5  0  0  0  0  0  0  0  0  0  0
  -11.1733  -12.7009    7.5308 C   0  0  0  0  0  0  0  0  0  0  0  0
  -10.1516  -12.2296    8.3496 C   0  0  0  0  0  0  0  0  0  0  0  0
  -10.4873  -11.4643    9.4000 F   0  0  0  0  0  0  0  0  0  0  0  0
   -7.7029  -12.5973   10.3811 C   0  0  0  0  0  0  0  0  0  0  0  0
   -8.5237  -13.5585   10.9415 C   0  0  0  0  0  0  0  0  0  0  0  0
   -8.1630  -13.7078   12.2838 C   0  0  0  0  0  0  0  0  0  0  0  0
   -7.0674  -12.8976   12.5384 C   0  0  0  0  0  0  0  0  0  0  0  0
   -6.8057  -12.2101   11.3662 N   0  0  0  0  0  0  0  0  0  0  0  0
   -6.3093  -12.7747   13.7585 C   0  0  0  0  0  0  0  0  0  0  0  0
   -6.6750  -13.6809   14.9033 C   0  0  0  0  0  0  0  0  0  0  0  0
   -7.2191  -13.1918   16.1012 C   0  0  0  0  0  0  0  0  0  0  0  0
   -7.4215  -11.8745   16.2645 F   0  0  0  0  0  0  0  0  0  0  0  0
   -7.5094  -14.0391   17.1651 C   0  0  0  0  0  0  0  0  0  0  0  0
   -7.2965  -15.4110   17.0172 C   0  0  0  0  0  0  0  0  0  0  0  0
   -7.6606  -16.4980   18.4101 S   0  0  0  0  0  0  0  0  0  0  0  0
   -6.5663  -16.1816   19.3219 O   0  0  0  0  0  0  0  0  0  0  0  0
   -8.9838  -16.0417   18.8240 O   0  0  0  0  0  0  0  0  0  0  0  0
   -7.6200  -17.8327   17.8202 O   0  5  0  0  0  0  0  0  0  0  0  0
   -6.8109  -15.9385   15.8226 C   0  0  0  0  0  0  0  0  0  0  0  0
   -6.4883  -15.0688   14.7876 C   0  0  0  0  0  0  0  0  0  0  0  0
   -5.9909  -15.5941   13.6565 F   0  0  0  0  0  0  0  0  0  0  0  0
   -5.2585  -11.9356   13.9427 C   0  0  0  0  0  0  0  0  0  0  0  0
   -4.6749  -11.0446   13.0480 N   0  0  0  0  0  0  0  0  0  0  0  0
   -3.7015  -10.4597   13.7073 C   0  0  0  0  0  0  0  0  0  0  0  0
   -2.7043   -9.4415   13.2211 C   0  0  0  0  0  0  0  0  0  0  0  0
   -1.6733   -8.8773   14.1347 C   0  0  0  0  0  0  0  0  0  0  0  0
   -0.6542   -9.6801   14.6700 C   0  0  0  0  0  0  0  0  0  0  0  0
   -0.5905  -10.9828   14.3538 F   0  0  0  0  0  0  0  0  0  0  0  0
    0.2861   -9.1705   15.5599 C   0  0  0  0  0  0  0  0  0  0  0  0
    0.2329   -7.8176   15.8987 C   0  0  0  0  0  0  0  0  0  0  0  0
    1.4717   -7.1603   17.0361 S   0  0  0  0  0  0  0  0  0  0  0  0
    1.0649   -7.7689   18.2972 O   0  0  0  0  0  0  0  0  0  0  0  0
    2.7140   -7.6604   16.4557 O   0  0  0  0  0  0  0  0  0  0  0  0
    1.2810   -5.7159   16.9418 O   0  5  0  0  0  0  0  0  0  0  0  0
   -0.7425   -6.9807   15.3596 C   0  0  0  0  0  0  0  0  0  0  0  0
   -1.6920   -7.5217   14.4988 C   0  0  0  0  0  0  0  0  0  0  0  0
   -2.6307   -6.7032   13.9984 F   0  0  0  0  0  0  0  0  0  0  0  0
   -2.7455   -9.0654   11.9287 C   0  0  0  0  0  0  0  0  0  0  0  0
   -1.8325   -8.1241   11.2894 C   0  0  0  0  0  0  0  0  0  0  0  0
   -2.1821   -7.9832   10.0008 C   0  0  0  0  0  0  0  0  0  0  0  0
   -3.3217   -8.8592    9.7137 C   0  0  0  0  0  0  0  0  0  0  0  0
   -3.6014   -9.4433   10.9213 N   0  0  0  0  0  0  0  0  0  0  0  0
   -3.5829  -10.8846   15.1070 C   0  0  0  0  0  0  0  0  0  0  0  0
   -4.5162  -11.8220   15.1816 C   0  0  0  0  0  0  0  0  0  0  0  0
   -6.8308  -10.6534    7.2329 C   0  0  0  0  0  0  0  0  0  0  0  0
   -5.7413   -9.9378    7.0077 C   0  0  0  0  0  0  0  0  0  0  0  0
   -4.2031   -7.4032    6.6410 C   0  0  0  0  0  0  0  0  0  0  0  0
   -3.7794   -6.8541    5.4446 C   0  0  0  0  0  0  0  0  0  0  0  0
   -1.7495    2.1483    0.7533 C   0  0  2  0  0  0  0  0  0  0  0  0
   -2.2858    1.1764   -0.3265 C   0  0  0  0  0  0  0  0  0  0  0  0
   -0.2208    2.2802    0.6563 C   0  0  0  0  0  0  0  0  0  0  0  0
    0.5536    1.1002    0.5068 C   0  0  0  0  0  0  0  0  0  0  0  0
    1.9373    1.0894    0.7198 C   0  0  0  0  0  0  0  0  0  0  0  0
    2.6571   -0.2222    0.8376 C   0  0  0  0  0  0  0  0  0  0  0  0
    2.5853    2.2958    0.9687 C   0  0  0  0  0  0  0  0  0  0  0  0
    1.8555    3.4849    1.0249 C   0  0  0  0  0  0  0  0  0  0  0  0
    0.4532    3.4971    0.8928 C   0  0  0  0  0  0  0  0  0  0  0  0
   -0.2290    4.8264    1.0715 C   0  0  0  0  0  0  0  0  0  0  0  0
    1.8384    1.4119    4.4410 H   0  0  0  0  0  0  0  0  0  0  0  0
   -2.0635    0.7056    3.7780 H   0  0  0  0  0  0  0  0  0  0  0  0
   -1.2024    0.2414    2.2149 H   0  0  0  0  0  0  0  0  0  0  0  0
   -2.1286    2.8355    2.6177 H   0  0  0  0  0  0  0  0  0  0  0  0
   -3.8115    0.7379    1.4496 H   0  0  0  0  0  0  0  0  0  0  0  0
   -4.2384    2.4161    1.9317 H   0  0  0  0  0  0  0  0  0  0  0  0
   -4.6135   -0.5382    4.7042 H   0  0  0  0  0  0  0  0  0  0  0  0
   -3.3243   -1.1181    2.1594 H   0  0  0  0  0  0  0  0  0  0  0  0
   -4.2397   -2.2389    3.1863 H   0  0  0  0  0  0  0  0  0  0  0  0
   -1.6784   -1.0314    4.0894 H   0  0  0  0  0  0  0  0  0  0  0  0
   -1.7766   -2.5397    3.1177 H   0  0  0  0  0  0  0  0  0  0  0  0
   -3.0363   -2.1976    5.7700 H   0  0  0  0  0  0  0  0  0  0  0  0
   -1.4364   -2.9095    5.4786 H   0  0  0  0  0  0  0  0  0  0  0  0
   -4.0327   -3.9308    4.4503 H   0  0  0  0  0  0  0  0  0  0  0  0
   -3.0407   -4.6205    5.7463 H   0  0  0  0  0  0  0  0  0  0  0  0
   -2.0210   -4.4001    3.0322 H   0  0  0  0  0  0  0  0  0  0  0  0
   -0.6139   -7.9798    5.4287 H   0  0  0  0  0  0  0  0  0  0  0  0
   -1.4617   -9.2059    7.3490 H   0  0  0  0  0  0  0  0  0  0  0  0
   -9.2802  -14.3502    5.2963 H   0  0  0  0  0  0  0  0  0  0  0  0
  -12.1591  -12.4826    7.7443 H   0  0  0  0  0  0  0  0  0  0  0  0
   -9.2720  -14.0755   10.4539 H   0  0  0  0  0  0  0  0  0  0  0  0
   -8.6333  -14.3186   12.9699 H   0  0  0  0  0  0  0  0  0  0  0  0
   -6.0893  -11.5451   11.2487 H   0  0  0  0  0  0  0  0  0  0  0  0
   -7.8770  -13.6592   18.0514 H   0  0  0  0  0  0  0  0  0  0  0  0
   -6.6928  -16.9573   15.7082 H   0  0  0  0  0  0  0  0  0  0  0  0
    1.0118   -9.7835   15.9633 H   0  0  0  0  0  0  0  0  0  0  0  0
   -0.7601   -5.9761   15.5951 H   0  0  0  0  0  0  0  0  0  0  0  0
   -1.0452   -7.6441   11.7528 H   0  0  0  0  0  0  0  0  0  0  0  0
   -1.7219   -7.3579    9.3209 H   0  0  0  0  0  0  0  0  0  0  0  0
   -4.3453  -10.0742   11.0550 H   0  0  0  0  0  0  0  0  0  0  0  0
   -2.9416  -10.5432   15.8399 H   0  0  0  0  0  0  0  0  0  0  0  0
   -4.6925  -12.3996   16.0184 H   0  0  0  0  0  0  0  0  0  0  0  0
   -7.5758  -10.8219    6.5389 H   0  0  0  0  0  0  0  0  0  0  0  0
   -5.4087   -9.5236    6.1229 H   0  0  0  0  0  0  0  0  0  0  0  0
   -5.1320   -7.1623    7.0206 H   0  0  0  0  0  0  0  0  0  0  0  0
   -4.4441   -6.3382    4.8471 H   0  0  0  0  0  0  0  0  0  0  0  0
   -2.1915    3.0929    0.5141 H   0  0  0  0  0  0  0  0  0  0  0  0
   -1.8861    0.1985   -0.1564 H   0  0  0  0  0  0  0  0  0  0  0  0
   -1.9880    1.5199   -1.2951 H   0  0  0  0  0  0  0  0  0  0  0  0
   -3.3539    1.1392   -0.2741 H   0  0  0  0  0  0  0  0  0  0  0  0
    0.0825    0.2238    0.2328 H   0  0  0  0  0  0  0  0  0  0  0  0
    1.9835   -1.0207    0.6061 H   0  0  0  0  0  0  0  0  0  0  0  0
    3.0210   -0.3409    1.8368 H   0  0  0  0  0  0  0  0  0  0  0  0
    3.4799   -0.2401    0.1539 H   0  0  0  0  0  0  0  0  0  0  0  0
    3.6072    2.3115    1.1120 H   0  0  0  0  0  0  0  0  0  0  0  0
    2.3556    4.3764    1.1667 H   0  0  0  0  0  0  0  0  0  0  0  0
   -1.2849    4.7049    0.9480 H   0  0  0  0  0  0  0  0  0  0  0  0
    0.1384    5.5168    0.3413 H   0  0  0  0  0  0  0  0  0  0  0  0
   -0.0256    5.2027    2.0523 H   0  0  0  0  0  0  0  0  0  0  0  0
  1  2  3  0  0  0  0
  1 92  1  0  0  0  0
  2  3  1  0  0  0  0
  3  4  1  0  0  0  0
  3 93  1  0  0  0  0
  3 94  1  0  0  0  0
  4  5  1  0  0  0  0
  4 95  1  1  0  0  0
  5  6  1  0  0  0  0
  5 96  1  0  0  0  0
  5 97  1  0  0  0  0
  6  7  2  0  0  0  0
  6  8  1  0  0  0  0
  8  9  1  0  0  0  0
  8 98  1  0  0  0  0
  9 10  1  0  0  0  0
  9 99  1  0  0  0  0
  9100  1  0  0  0  0
 10 11  1  0  0  0  0
 10101  1  0  0  0  0
 10102  1  0  0  0  0
 11 12  1  0  0  0  0
 11103  1  0  0  0  0
 11104  1  0  0  0  0
 12 13  1  0  0  0  0
 12105  1  0  0  0  0
 12106  1  0  0  0  0
 13 14  1  0  0  0  0
 13107  1  0  0  0  0
 14 15  2  0  0  0  0
 14 16  1  0  0  0  0
 16 17  1  0  0  0  0
 16 81  2  0  0  0  0
 17 18  2  0  0  0  0
 17108  1  0  0  0  0
 18 19  1  0  0  0  0
 18109  1  0  0  0  0
 19 20  1  0  0  0  0
 19 80  2  0  0  0  0
 20 21  1  0  0  0  0
 20 74  2  0  0  0  0
 21 22  2  0  0  0  0
 21 79  1  0  0  0  0
 22 23  1  0  0  0  0
 23 24  2  0  0  0  0
 23 78  1  0  0  0  0
 24 25  1  0  0  0  0
 24 37  1  0  0  0  0
 25 26  1  0  0  0  0
 25 35  2  0  0  0  0
 26 27  1  0  0  0  0
 26 28  2  0  0  0  0
 28 29  1  0  0  0  0
 28110  1  0  0  0  0
 29 30  1  0  0  0  0
 29 34  2  0  0  0  0
 30 31  2  0  0  0  0
 30 32  2  0  0  0  0
 30 33  1  0  0  0  0
 34 35  1  0  0  0  0
 34111  1  0  0  0  0
 35 36  1  0  0  0  0
 37 38  2  0  0  0  0
 37 41  1  0  0  0  0
 38 39  1  0  0  0  0
 38112  1  0  0  0  0
 39 40  2  0  0  0  0
 39113  1  0  0  0  0
 40 41  1  0  0  0  0
 40 42  1  0  0  0  0
 41114  1  0  0  0  0
 42 43  1  0  0  0  0
 42 55  2  0  0  0  0
 43 44  1  0  0  0  0
 43 53  2  0  0  0  0
 44 45  1  0  0  0  0
 44 46  2  0  0  0  0
 46 47  1  0  0  0  0
 46115  1  0  0  0  0
 47 48  1  0  0  0  0
 47 52  2  0  0  0  0
 48 49  2  0  0  0  0
 48 50  2  0  0  0  0
 48 51  1  0  0  0  0
 52 53  1  0  0  0  0
 52116  1  0  0  0  0
 53 54  1  0  0  0  0
 55 56  1  0  0  0  0
 55 77  1  0  0  0  0
 56 57  2  0  0  0  0
 57 58  1  0  0  0  0
 57 76  1  0  0  0  0
 58 59  1  0  0  0  0
 58 71  2  0  0  0  0
 59 60  1  0  0  0  0
 59 69  2  0  0  0  0
 60 61  1  0  0  0  0
 60 62  2  0  0  0  0
 62 63  1  0  0  0  0
 62117  1  0  0  0  0
 63 64  1  0  0  0  0
 63 68  2  0  0  0  0
 64 65  2  0  0  0  0
 64 66  2  0  0  0  0
 64 67  1  0  0  0  0
 68 69  1  0  0  0  0
 68118  1  0  0  0  0
 69 70  1  0  0  0  0
 71 72  1  0  0  0  0
 71 75  1  0  0  0  0
 72 73  2  0  0  0  0
 72119  1  0  0  0  0
 73 74  1  0  0  0  0
 73120  1  0  0  0  0
 74 75  1  0  0  0  0
 75121  1  0  0  0  0
 76 77  2  0  0  0  0
 76122  1  0  0  0  0
 77123  1  0  0  0  0
 78 79  2  0  0  0  0
 78124  1  0  0  0  0
 79125  1  0  0  0  0
 80 81  1  0  0  0  0
 80126  1  0  0  0  0
 81127  1  0  0  0  0
 82 84  1  0  0  0  0
 82 83  1  0  0  0  0
 82  4  1  0  0  0  0
 82128  1  6  0  0  0
 83129  1  0  0  0  0
 83130  1  0  0  0  0
 83131  1  0  0  0  0
 84 85  1  0  0  0  0
 84 90  2  0  0  0  0
 85 86  2  0  0  0  0
 85132  1  0  0  0  0
 86 87  1  0  0  0  0
 86 88  1  0  0  0  0
 87133  1  0  0  0  0
 87134  1  0  0  0  0
 87135  1  0  0  0  0
 88 89  2  0  0  0  0
 88136  1  0  0  0  0
 89 90  1  0  0  0  0
 89137  1  0  0  0  0
 90 91  1  0  0  0  0
 91138  1  0  0  0  0
 91139  1  0  0  0  0
 91140  1  0  0  0  0
M  CHG  4   4   1  33  -1  51  -1  67  -1
M  END
$$$$
