4_1_7033
 OpenBabel04152301373D

148159  0  0  0  0  0  0  0  0999 V2000
    0.6027   -0.1586   -0.0998 O   0  0  0  0  0  0  0  0  0  0  0  0
    1.8306   -0.2280   -0.0636 C   0  0  0  0  0  0  0  0  0  0  0  0
    2.5656   -0.5788    1.2386 C   0  0  0  0  0  0  0  0  0  0  0  0
    3.9211   -1.1254    0.9843 N   0  3  0  0  0  0  0  0  0  0  0  0
    4.9777   -0.1163    1.2791 C   0  0  0  0  0  0  0  0  0  0  0  0
    5.1559    0.2549    2.7732 C   0  0  0  0  0  0  0  0  0  0  0  0
    5.3256   -0.9622    3.5378 N   0  0  0  0  0  0  0  0  0  0  0  0
    6.0730   -0.9193    4.6809 C   0  0  0  0  0  0  0  0  0  0  0  0
    5.9397    0.1264    5.5095 N   0  0  0  0  0  0  0  0  0  0  0  0
    6.7634    0.1595    6.5688 C   0  0  0  0  0  0  0  0  0  0  0  0
    7.7265   -0.7876    6.8083 C   0  0  0  0  0  0  0  0  0  0  0  0
    7.8235   -1.8069    5.8877 C   0  0  0  0  0  0  0  0  0  0  0  0
    8.8287   -2.7393    5.9767 N   0  0  0  0  0  0  0  0  0  0  0  0
    9.7595   -2.8726    4.8648 C   0  0  0  0  0  0  0  0  0  0  0  0
    9.8641   -4.3307    4.4265 C   0  0  0  0  0  0  0  0  0  0  0  0
   10.0848   -5.2655    5.6154 C   0  0  0  0  0  0  0  0  0  0  0  0
    9.0146   -5.0486    6.6850 C   0  0  0  0  0  0  0  0  0  0  0  0
    8.9751   -3.5891    7.1391 C   0  0  0  0  0  0  0  0  0  0  0  0
    6.9794   -1.8909    4.8486 N   0  0  0  0  0  0  0  0  0  0  0  0
    4.3715   -2.0402    3.3545 C   0  0  0  0  0  0  0  0  0  0  0  0
    4.1782   -2.3193    1.8421 C   0  0  0  0  0  0  0  0  0  0  0  0
    2.6343    0.0785   -1.1380 N   0  0  0  0  0  0  0  0  0  0  0  0
    2.1100    0.5358   -2.4069 C   0  0  0  0  0  0  0  0  0  0  0  0
    2.5054    1.9802   -2.7131 C   0  0  0  0  0  0  0  0  0  0  0  0
    3.9988    2.2067   -2.9612 C   0  0  0  0  0  0  0  0  0  0  0  0
    4.6169    1.3720   -4.0798 C   0  0  0  0  0  0  0  0  0  0  0  0
    3.9997    1.6021   -5.3773 N   0  0  0  0  0  0  0  0  0  0  0  0
    4.5874    1.8339   -6.5985 C   0  0  0  0  0  0  0  0  0  0  0  0
    3.8853    2.1269   -7.5643 O   0  0  0  0  0  0  0  0  0  0  0  0
    6.0594    1.7677   -6.7488 C   0  0  0  0  0  0  0  0  0  0  0  0
    6.7062    2.7644   -7.4855 C   0  0  0  0  0  0  0  0  0  0  0  0
    8.1011    2.7682   -7.5771 C   0  0  0  0  0  0  0  0  0  0  0  0
    8.8621    1.8020   -6.8986 C   0  0  0  0  0  0  0  0  0  0  0  0
   10.3492    1.8516   -6.8962 C   0  0  0  0  0  0  0  0  0  0  0  0
   11.1500    0.7275   -7.4977 C   0  0  0  0  0  0  0  0  0  0  0  0
   12.4474    0.5585   -7.5221 N   0  0  0  0  0  0  0  0  0  0  0  0
   12.6610   -0.6555   -8.1650 C   0  0  0  0  0  0  0  0  0  0  0  0
   13.8349   -1.2449   -8.4980 C   0  0  0  0  0  0  0  0  0  0  0  0
   13.7734   -2.5671   -9.2158 C   0  0  0  0  0  0  0  0  0  0  0  0
   13.3121   -2.6665  -10.5388 C   0  0  0  0  0  0  0  0  0  0  0  0
   12.8635   -1.5769  -11.1824 F   0  0  0  0  0  0  0  0  0  0  0  0
   13.2623   -3.8874  -11.2034 C   0  0  0  0  0  0  0  0  0  0  0  0
   13.7115   -5.0350  -10.5484 C   0  0  0  0  0  0  0  0  0  0  0  0
   13.6439   -6.6100  -11.4280 S   0  0  0  0  0  0  0  0  0  0  0  0
   12.2082   -6.8732  -11.4429 O   0  0  0  0  0  0  0  0  0  0  0  0
   14.2394   -6.2729  -12.7169 O   0  0  0  0  0  0  0  0  0  0  0  0
   14.4362   -7.5034  -10.5887 O   0  5  0  0  0  0  0  0  0  0  0  0
   14.2051   -4.9713   -9.2463 C   0  0  0  0  0  0  0  0  0  0  0  0
   14.2167   -3.7436   -8.5896 C   0  0  0  0  0  0  0  0  0  0  0  0
   14.6697   -3.7082   -7.3265 F   0  0  0  0  0  0  0  0  0  0  0  0
   15.1304   -0.6833   -8.2120 C   0  0  0  0  0  0  0  0  0  0  0  0
   16.3770   -1.1807   -8.5507 C   0  0  0  0  0  0  0  0  0  0  0  0
   17.3490   -0.3271   -8.0188 C   0  0  0  0  0  0  0  0  0  0  0  0
   16.7091    0.7334   -7.3980 C   0  0  0  0  0  0  0  0  0  0  0  0
   15.3487    0.4977   -7.5169 N   0  0  0  0  0  0  0  0  0  0  0  0
   17.2982    1.8769   -6.7451 C   0  0  0  0  0  0  0  0  0  0  0  0
   18.7996    1.9802   -6.7337 C   0  0  0  0  0  0  0  0  0  0  0  0
   19.5461    1.7957   -5.5596 C   0  0  0  0  0  0  0  0  0  0  0  0
   18.9239    1.5752   -4.3906 F   0  0  0  0  0  0  0  0  0  0  0  0
   20.9359    1.8638   -5.5637 C   0  0  0  0  0  0  0  0  0  0  0  0
   21.6012    2.0920   -6.7700 C   0  0  0  0  0  0  0  0  0  0  0  0
   23.4058    2.1423   -6.7665 S   0  0  0  0  0  0  0  0  0  0  0  0
   23.6632    3.4254   -6.1211 O   0  0  0  0  0  0  0  0  0  0  0  0
   23.7494    0.9589   -5.9840 O   0  0  0  0  0  0  0  0  0  0  0  0
   23.7514    2.0717   -8.1831 O   0  5  0  0  0  0  0  0  0  0  0  0
   20.8938    2.2571   -7.9596 C   0  0  0  0  0  0  0  0  0  0  0  0
   19.5034    2.2150   -7.9267 C   0  0  0  0  0  0  0  0  0  0  0  0
   18.8396    2.3885   -9.0807 F   0  0  0  0  0  0  0  0  0  0  0  0
   16.5966    2.8801   -6.1613 C   0  0  0  0  0  0  0  0  0  0  0  0
   15.2187    3.0432   -6.0634 N   0  0  0  0  0  0  0  0  0  0  0  0
   15.0357    4.1613   -5.4019 C   0  0  0  0  0  0  0  0  0  0  0  0
   13.7444    4.8402   -5.0316 C   0  0  0  0  0  0  0  0  0  0  0  0
   13.7450    6.1093   -4.2539 C   0  0  0  0  0  0  0  0  0  0  0  0
   14.2078    7.3062   -4.8205 C   0  0  0  0  0  0  0  0  0  0  0  0
   14.6769    7.3154   -6.0776 F   0  0  0  0  0  0  0  0  0  0  0  0
   14.2195    8.4973   -4.1015 C   0  0  0  0  0  0  0  0  0  0  0  0
   13.7337    8.5030   -2.7928 C   0  0  0  0  0  0  0  0  0  0  0  0
   13.7097   10.0637   -1.8843 S   0  0  0  0  0  0  0  0  0  0  0  0
   15.1271   10.2638   -1.6065 O   0  0  0  0  0  0  0  0  0  0  0  0
   13.1138   10.9746   -2.8566 O   0  0  0  0  0  0  0  0  0  0  0  0
   12.8750    9.7636   -0.7246 O   0  5  0  0  0  0  0  0  0  0  0  0
   13.2474    7.3374   -2.2028 C   0  0  0  0  0  0  0  0  0  0  0  0
   13.2723    6.1531   -2.9327 C   0  0  0  0  0  0  0  0  0  0  0  0
   12.8031    5.0395   -2.3485 F   0  0  0  0  0  0  0  0  0  0  0  0
   12.5771    4.2911   -5.4220 C   0  0  0  0  0  0  0  0  0  0  0  0
   11.2536    4.8408   -5.1449 C   0  0  0  0  0  0  0  0  0  0  0  0
   10.3208    4.0062   -5.6302 C   0  0  0  0  0  0  0  0  0  0  0  0
   10.9811    2.8788   -6.2926 C   0  0  0  0  0  0  0  0  0  0  0  0
   12.3196    3.1368   -6.1247 N   0  0  0  0  0  0  0  0  0  0  0  0
   16.2795    4.8206   -4.9805 C   0  0  0  0  0  0  0  0  0  0  0  0
   17.1991    4.0206   -5.5028 C   0  0  0  0  0  0  0  0  0  0  0  0
   11.3573   -1.2077   -8.4636 C   0  0  0  0  0  0  0  0  0  0  0  0
   10.3920   -0.3620   -8.1331 C   0  0  0  0  0  0  0  0  0  0  0  0
    8.1969    0.7837   -6.1990 C   0  0  0  0  0  0  0  0  0  0  0  0
    6.8039    0.7364   -6.1704 C   0  0  0  0  0  0  0  0  0  0  0  0
    1.9935   -1.3091    1.7717 H   0  0  0  0  0  0  0  0  0  0  0  0
    2.6744    0.3205    1.8082 H   0  0  0  0  0  0  0  0  0  0  0  0
    3.9551   -1.3820   -0.0023 H   0  0  0  0  0  0  0  0  0  0  0  0
    4.7355    0.7786    0.7449 H   0  0  0  0  0  0  0  0  0  0  0  0
    5.9012   -0.5654    0.9785 H   0  0  0  0  0  0  0  0  0  0  0  0
    4.2900    0.7796    3.1194 H   0  0  0  0  0  0  0  0  0  0  0  0
    6.0142    0.8825    2.8926 H   0  0  0  0  0  0  0  0  0  0  0  0
    6.6671    0.9387    7.2386 H   0  0  0  0  0  0  0  0  0  0  0  0
    8.3445   -0.7388    7.6333 H   0  0  0  0  0  0  0  0  0  0  0  0
   10.7248   -2.5268    5.1704 H   0  0  0  0  0  0  0  0  0  0  0  0
    9.4017   -2.2891    4.0424 H   0  0  0  0  0  0  0  0  0  0  0  0
   10.6867   -4.4309    3.7496 H   0  0  0  0  0  0  0  0  0  0  0  0
    8.9431   -4.6035    3.9550 H   0  0  0  0  0  0  0  0  0  0  0  0
   11.0481   -5.0721    6.0392 H   0  0  0  0  0  0  0  0  0  0  0  0
   10.0245   -6.2768    5.2712 H   0  0  0  0  0  0  0  0  0  0  0  0
    9.2324   -5.6707    7.5279 H   0  0  0  0  0  0  0  0  0  0  0  0
    8.0620   -5.2995    6.2672 H   0  0  0  0  0  0  0  0  0  0  0  0
    8.1460   -3.4407    7.7990 H   0  0  0  0  0  0  0  0  0  0  0  0
    9.8808   -3.3454    7.6541 H   0  0  0  0  0  0  0  0  0  0  0  0
    3.4333   -1.7615    3.7870 H   0  0  0  0  0  0  0  0  0  0  0  0
    4.7407   -2.9236    3.8323 H   0  0  0  0  0  0  0  0  0  0  0  0
    5.0652   -2.7968    1.4813 H   0  0  0  0  0  0  0  0  0  0  0  0
    3.2967   -2.9215    1.7702 H   0  0  0  0  0  0  0  0  0  0  0  0
    3.6091   -0.0176   -1.0389 H   0  0  0  0  0  0  0  0  0  0  0  0
    1.0423    0.4696   -2.3817 H   0  0  0  0  0  0  0  0  0  0  0  0
    2.5229   -0.0855   -3.1740 H   0  0  0  0  0  0  0  0  0  0  0  0
    2.2117    2.5873   -1.8824 H   0  0  0  0  0  0  0  0  0  0  0  0
    2.0097    2.2374   -3.6258 H   0  0  0  0  0  0  0  0  0  0  0  0
    4.5208    1.9804   -2.0550 H   0  0  0  0  0  0  0  0  0  0  0  0
    4.0920    3.2263   -3.2719 H   0  0  0  0  0  0  0  0  0  0  0  0
    4.5086    0.3370   -3.8309 H   0  0  0  0  0  0  0  0  0  0  0  0
    5.6437    1.6616   -4.1612 H   0  0  0  0  0  0  0  0  0  0  0  0
    3.0153    1.5900   -5.3813 H   0  0  0  0  0  0  0  0  0  0  0  0
    6.1549    3.4960   -7.9608 H   0  0  0  0  0  0  0  0  0  0  0  0
    8.5751    3.4860   -8.1473 H   0  0  0  0  0  0  0  0  0  0  0  0
   12.8983   -3.9438  -12.1674 H   0  0  0  0  0  0  0  0  0  0  0  0
   14.5563   -5.8205   -8.7766 H   0  0  0  0  0  0  0  0  0  0  0  0
   16.5581   -2.0347   -9.1011 H   0  0  0  0  0  0  0  0  0  0  0  0
   18.3701   -0.4641   -8.0786 H   0  0  0  0  0  0  0  0  0  0  0  0
   14.6411    1.0822   -7.1606 H   0  0  0  0  0  0  0  0  0  0  0  0
   21.4678    1.7472   -4.6870 H   0  0  0  0  0  0  0  0  0  0  0  0
   21.3931    2.4081   -8.8501 H   0  0  0  0  0  0  0  0  0  0  0  0
   14.5819    9.3637   -4.5293 H   0  0  0  0  0  0  0  0  0  0  0  0
   12.8750    7.3526   -1.2404 H   0  0  0  0  0  0  0  0  0  0  0  0
   11.0651    5.7290   -4.6544 H   0  0  0  0  0  0  0  0  0  0  0  0
    9.3004    4.1380   -5.5494 H   0  0  0  0  0  0  0  0  0  0  0  0
   13.0287    2.5503   -6.4746 H   0  0  0  0  0  0  0  0  0  0  0  0
   16.4046    5.6807   -4.4240 H   0  0  0  0  0  0  0  0  0  0  0  0
   18.2157    4.1894   -5.4471 H   0  0  0  0  0  0  0  0  0  0  0  0
   11.1997   -2.1388   -8.8797 H   0  0  0  0  0  0  0  0  0  0  0  0
    9.3743   -0.4457   -8.2824 H   0  0  0  0  0  0  0  0  0  0  0  0
    8.7435    0.0636   -5.7014 H   0  0  0  0  0  0  0  0  0  0  0  0
    6.3231   -0.0594   -5.7225 H   0  0  0  0  0  0  0  0  0  0  0  0
  1  2  2  0  0  0  0
  2  3  1  0  0  0  0
  2 22  1  0  0  0  0
  3  4  1  0  0  0  0
  3 96  1  0  0  0  0
  3 97  1  0  0  0  0
  4  5  1  0  0  0  0
  4 21  1  0  0  0  0
  4 98  1  0  0  0  0
  5  6  1  0  0  0  0
  5 99  1  0  0  0  0
  5100  1  0  0  0  0
  6  7  1  0  0  0  0
  6101  1  0  0  0  0
  6102  1  0  0  0  0
  7  8  1  0  0  0  0
  7 20  1  0  0  0  0
  8  9  1  0  0  0  0
  8 19  2  0  0  0  0
  9 10  2  0  0  0  0
 10 11  1  0  0  0  0
 10103  1  0  0  0  0
 11 12  2  0  0  0  0
 11104  1  0  0  0  0
 12 13  1  0  0  0  0
 12 19  1  0  0  0  0
 13 14  1  0  0  0  0
 13 18  1  0  0  0  0
 14 15  1  0  0  0  0
 14105  1  0  0  0  0
 14106  1  0  0  0  0
 15 16  1  0  0  0  0
 15107  1  0  0  0  0
 15108  1  0  0  0  0
 16 17  1  0  0  0  0
 16109  1  0  0  0  0
 16110  1  0  0  0  0
 17 18  1  0  0  0  0
 17111  1  0  0  0  0
 17112  1  0  0  0  0
 18113  1  0  0  0  0
 18114  1  0  0  0  0
 20 21  1  0  0  0  0
 20115  1  0  0  0  0
 20116  1  0  0  0  0
 21117  1  0  0  0  0
 21118  1  0  0  0  0
 22 23  1  0  0  0  0
 22119  1  0  0  0  0
 23 24  1  0  0  0  0
 23120  1  0  0  0  0
 23121  1  0  0  0  0
 24 25  1  0  0  0  0
 24122  1  0  0  0  0
 24123  1  0  0  0  0
 25 26  1  0  0  0  0
 25124  1  0  0  0  0
 25125  1  0  0  0  0
 26 27  1  0  0  0  0
 26126  1  0  0  0  0
 26127  1  0  0  0  0
 27 28  1  0  0  0  0
 27128  1  0  0  0  0
 28 29  2  0  0  0  0
 28 30  1  0  0  0  0
 30 31  1  0  0  0  0
 30 95  2  0  0  0  0
 31 32  2  0  0  0  0
 31129  1  0  0  0  0
 32 33  1  0  0  0  0
 32130  1  0  0  0  0
 33 34  1  0  0  0  0
 33 94  2  0  0  0  0
 34 35  1  0  0  0  0
 34 88  2  0  0  0  0
 35 36  2  0  0  0  0
 35 93  1  0  0  0  0
 36 37  1  0  0  0  0
 37 38  2  0  0  0  0
 37 92  1  0  0  0  0
 38 39  1  0  0  0  0
 38 51  1  0  0  0  0
 39 40  1  0  0  0  0
 39 49  2  0  0  0  0
 40 41  1  0  0  0  0
 40 42  2  0  0  0  0
 42 43  1  0  0  0  0
 42131  1  0  0  0  0
 43 44  1  0  0  0  0
 43 48  2  0  0  0  0
 44 45  2  0  0  0  0
 44 46  2  0  0  0  0
 44 47  1  0  0  0  0
 48 49  1  0  0  0  0
 48132  1  0  0  0  0
 49 50  1  0  0  0  0
 51 52  2  0  0  0  0
 51 55  1  0  0  0  0
 52 53  1  0  0  0  0
 52133  1  0  0  0  0
 53 54  2  0  0  0  0
 53134  1  0  0  0  0
 54 55  1  0  0  0  0
 54 56  1  0  0  0  0
 55135  1  0  0  0  0
 56 57  1  0  0  0  0
 56 69  2  0  0  0  0
 57 58  1  0  0  0  0
 57 67  2  0  0  0  0
 58 59  1  0  0  0  0
 58 60  2  0  0  0  0
 60 61  1  0  0  0  0
 60136  1  0  0  0  0
 61 62  1  0  0  0  0
 61 66  2  0  0  0  0
 62 63  2  0  0  0  0
 62 64  2  0  0  0  0
 62 65  1  0  0  0  0
 66 67  1  0  0  0  0
 66137  1  0  0  0  0
 67 68  1  0  0  0  0
 69 70  1  0  0  0  0
 69 91  1  0  0  0  0
 70 71  2  0  0  0  0
 71 72  1  0  0  0  0
 71 90  1  0  0  0  0
 72 73  1  0  0  0  0
 72 85  2  0  0  0  0
 73 74  1  0  0  0  0
 73 83  2  0  0  0  0
 74 75  1  0  0  0  0
 74 76  2  0  0  0  0
 76 77  1  0  0  0  0
 76138  1  0  0  0  0
 77 78  1  0  0  0  0
 77 82  2  0  0  0  0
 78 79  2  0  0  0  0
 78 80  2  0  0  0  0
 78 81  1  0  0  0  0
 82 83  1  0  0  0  0
 82139  1  0  0  0  0
 83 84  1  0  0  0  0
 85 86  1  0  0  0  0
 85 89  1  0  0  0  0
 86 87  2  0  0  0  0
 86140  1  0  0  0  0
 87 88  1  0  0  0  0
 87141  1  0  0  0  0
 88 89  1  0  0  0  0
 89142  1  0  0  0  0
 90 91  2  0  0  0  0
 90143  1  0  0  0  0
 91144  1  0  0  0  0
 92 93  2  0  0  0  0
 92145  1  0  0  0  0
 93146  1  0  0  0  0
 94 95  1  0  0  0  0
 94147  1  0  0  0  0
 95148  1  0  0  0  0
M  CHG  4   4   1  47  -1  65  -1  81  -1
M  END
$$$$
