4_1_1722
 OpenBabel04152301373D

132141  0  0  1  0  0  0  0  0999 V2000
    2.2591   -2.7549    0.1649 C   0  0  0  0  0  0  0  0  0  0  0  0
    1.4282   -3.0410   -1.0781 C   0  0  0  0  0  0  0  0  0  0  0  0
    1.1629   -1.8147   -1.9608 C   0  0  2  0  0  0  0  0  0  0  0  0
    0.6052   -0.5263   -1.3745 C   0  0  0  0  0  0  0  0  0  0  0  0
    0.9033    0.5507   -1.9088 O   0  0  0  0  0  0  0  0  0  0  0  0
   -0.2791   -0.4364   -0.3534 N   0  0  0  0  0  0  0  0  0  0  0  0
   -0.8803   -1.4110    0.5330 C   0  0  0  0  0  0  0  0  0  0  0  0
   -0.4424   -1.1629    1.9769 C   0  0  0  0  0  0  0  0  0  0  0  0
   -1.3162   -0.1608    2.7336 C   0  0  0  0  0  0  0  0  0  0  0  0
   -2.7794   -0.5645    2.8702 C   0  0  0  0  0  0  0  0  0  0  0  0
   -2.9647   -1.8869    3.4451 N   0  0  0  0  0  0  0  0  0  0  0  0
   -4.0299   -2.3527    4.1797 C   0  0  0  0  0  0  0  0  0  0  0  0
   -3.9926   -3.4647    4.6847 O   0  0  0  0  0  0  0  0  0  0  0  0
   -5.1967   -1.4692    4.3804 C   0  0  0  0  0  0  0  0  0  0  0  0
   -5.6873   -1.2894    5.6745 C   0  0  0  0  0  0  0  0  0  0  0  0
   -6.7348   -0.3946    5.8910 C   0  0  0  0  0  0  0  0  0  0  0  0
   -7.2641    0.3504    4.8239 C   0  0  0  0  0  0  0  0  0  0  0  0
   -8.3767    1.3058    5.0431 C   0  0  0  0  0  0  0  0  0  0  0  0
   -9.7166    1.0498    4.4077 C   0  0  0  0  0  0  0  0  0  0  0  0
  -10.8096    1.7647    4.4692 N   0  0  0  0  0  0  0  0  0  0  0  0
  -11.7343    1.1111    3.6631 C   0  0  0  0  0  0  0  0  0  0  0  0
  -13.0410    1.4045    3.4631 C   0  0  0  0  0  0  0  0  0  0  0  0
  -13.8176    0.5067    2.5398 C   0  0  0  0  0  0  0  0  0  0  0  0
  -14.1364   -0.8144    2.8958 C   0  0  0  0  0  0  0  0  0  0  0  0
  -13.7278   -1.3148    4.0728 F   0  0  0  0  0  0  0  0  0  0  0  0
  -14.8249   -1.6563    2.0293 C   0  0  0  0  0  0  0  0  0  0  0  0
  -15.2334   -1.1641    0.7891 C   0  0  0  0  0  0  0  0  0  0  0  0
  -16.1175   -2.2711   -0.3296 S   0  0  0  0  0  0  0  0  0  0  0  0
  -15.0320   -3.1165   -0.8172 O   0  0  0  0  0  0  0  0  0  0  0  0
  -17.0740   -2.9196    0.5616 O   0  0  0  0  0  0  0  0  0  0  0  0
  -16.6982   -1.3642   -1.3146 O   0  5  0  0  0  0  0  0  0  0  0  0
  -14.9688    0.1534    0.4165 C   0  0  0  0  0  0  0  0  0  0  0  0
  -14.2530    0.9696    1.2882 C   0  0  0  0  0  0  0  0  0  0  0  0
  -13.9740    2.2225    0.8957 F   0  0  0  0  0  0  0  0  0  0  0  0
  -13.7192    2.5053    4.0933 C   0  0  0  0  0  0  0  0  0  0  0  0
  -15.0547    2.8567    4.0125 C   0  0  0  0  0  0  0  0  0  0  0  0
  -15.2491    4.0105    4.7809 C   0  0  0  0  0  0  0  0  0  0  0  0
  -14.0426    4.3552    5.3697 C   0  0  0  0  0  0  0  0  0  0  0  0
  -13.1117    3.4291    4.9317 N   0  0  0  0  0  0  0  0  0  0  0  0
  -13.7629    5.4448    6.2706 C   0  0  0  0  0  0  0  0  0  0  0  0
  -14.9075    6.3282    6.6778 C   0  0  0  0  0  0  0  0  0  0  0  0
  -15.0307    7.6403    6.1955 C   0  0  0  0  0  0  0  0  0  0  0  0
  -14.1011    8.1468    5.3699 F   0  0  0  0  0  0  0  0  0  0  0  0
  -16.0845    8.4595    6.5847 C   0  0  0  0  0  0  0  0  0  0  0  0
  -17.0526    7.9516    7.4533 C   0  0  0  0  0  0  0  0  0  0  0  0
  -18.4201    9.0203    7.9486 S   0  0  0  0  0  0  0  0  0  0  0  0
  -17.7788    9.8727    8.9440 O   0  0  0  0  0  0  0  0  0  0  0  0
  -18.7813    9.6723    6.6935 O   0  0  0  0  0  0  0  0  0  0  0  0
  -19.4112    8.0824    8.4675 O   0  5  0  0  0  0  0  0  0  0  0  0
  -16.9814    6.6405    7.9229 C   0  0  0  0  0  0  0  0  0  0  0  0
  -15.9045    5.8476    7.5415 C   0  0  0  0  0  0  0  0  0  0  0  0
  -15.8396    4.5946    8.0193 F   0  0  0  0  0  0  0  0  0  0  0  0
  -12.5468    5.7294    6.7998 C   0  0  0  0  0  0  0  0  0  0  0  0
  -11.3332    5.0769    6.6145 N   0  0  0  0  0  0  0  0  0  0  0  0
  -10.4549    5.7454    7.3246 C   0  0  0  0  0  0  0  0  0  0  0  0
   -8.9884    5.4695    7.5175 C   0  0  0  0  0  0  0  0  0  0  0  0
   -8.1495    6.3508    8.3716 C   0  0  0  0  0  0  0  0  0  0  0  0
   -8.3115    6.3685    9.7651 C   0  0  0  0  0  0  0  0  0  0  0  0
   -9.2429    5.5933   10.3412 F   0  0  0  0  0  0  0  0  0  0  0  0
   -7.5410    7.1924   10.5787 C   0  0  0  0  0  0  0  0  0  0  0  0
   -6.5688    8.0041    9.9920 C   0  0  0  0  0  0  0  0  0  0  0  0
   -5.5407    9.0358   11.0603 S   0  0  0  0  0  0  0  0  0  0  0  0
   -6.4673   10.1037   11.4164 O   0  0  0  0  0  0  0  0  0  0  0  0
   -5.1874    8.1115   12.1333 O   0  0  0  0  0  0  0  0  0  0  0  0
   -4.4354    9.4216   10.1879 O   0  5  0  0  0  0  0  0  0  0  0  0
   -6.3648    7.9974    8.6123 C   0  0  0  0  0  0  0  0  0  0  0  0
   -7.1638    7.1810    7.8174 C   0  0  0  0  0  0  0  0  0  0  0  0
   -6.9556    7.1851    6.4915 F   0  0  0  0  0  0  0  0  0  0  0  0
   -8.4510    4.3767    6.9428 C   0  0  0  0  0  0  0  0  0  0  0  0
   -7.0628    3.9454    7.0724 C   0  0  0  0  0  0  0  0  0  0  0  0
   -6.8925    2.8053    6.3827 C   0  0  0  0  0  0  0  0  0  0  0  0
   -8.1689    2.4153    5.7779 C   0  0  0  0  0  0  0  0  0  0  0  0
   -9.0284    3.4191    6.1430 N   0  0  0  0  0  0  0  0  0  0  0  0
  -11.0073    6.9125    8.0242 C   0  0  0  0  0  0  0  0  0  0  0  0
  -12.2913    6.8333    7.7037 C   0  0  0  0  0  0  0  0  0  0  0  0
  -11.0556   -0.0189    3.0697 C   0  0  0  0  0  0  0  0  0  0  0  0
   -9.8338   -0.1504    3.5624 C   0  0  0  0  0  0  0  0  0  0  0  0
   -6.7617    0.1543    3.5298 C   0  0  0  0  0  0  0  0  0  0  0  0
   -5.7748   -0.7965    3.3007 C   0  0  0  0  0  0  0  0  0  0  0  0
    0.5050   -2.2729   -3.2596 C   0  0  0  0  0  0  0  0  0  0  0  0
    1.1810   -2.8200   -4.1371 O   0  0  0  0  0  0  0  0  0  0  0  0
   -0.9745   -2.2731   -3.4469 C   0  0  0  0  0  0  0  0  0  0  0  0
   -1.5525   -3.4358   -3.9721 C   0  0  0  0  0  0  0  0  0  0  0  0
   -2.9278   -3.4961   -4.2130 C   0  0  0  0  0  0  0  0  0  0  0  0
   -3.7475   -2.4021   -3.9327 C   0  0  0  0  0  0  0  0  0  0  0  0
   -5.0708   -2.5927   -4.2136 O   0  0  0  0  0  0  0  0  0  0  0  0
   -5.9732   -1.5681   -3.8120 C   0  0  0  0  0  0  0  0  0  0  0  0
   -3.1719   -1.2335   -3.4355 C   0  0  0  0  0  0  0  0  0  0  0  0
   -1.7882   -1.1629   -3.2114 C   0  0  0  0  0  0  0  0  0  0  0  0
    2.3950   -3.6600    0.7192 H   0  0  0  0  0  0  0  0  0  0  0  0
    1.7529   -2.0359    0.7746 H   0  0  0  0  0  0  0  0  0  0  0  0
    3.2134   -2.3677   -0.1253 H   0  0  0  0  0  0  0  0  0  0  0  0
    0.4852   -3.4385   -0.7657 H   0  0  0  0  0  0  0  0  0  0  0  0
    1.9948   -3.7273   -1.6721 H   0  0  0  0  0  0  0  0  0  0  0  0
    2.1419   -1.4186   -2.1329 H   0  0  0  0  0  0  0  0  0  0  0  0
   -0.5759    0.4854   -0.1762 H   0  0  0  0  0  0  0  0  0  0  0  0
   -0.5751   -2.3926    0.2361 H   0  0  0  0  0  0  0  0  0  0  0  0
   -1.9450   -1.3224    0.4740 H   0  0  0  0  0  0  0  0  0  0  0  0
    0.5608   -0.7909    1.9641 H   0  0  0  0  0  0  0  0  0  0  0  0
   -0.5313   -2.0975    2.4902 H   0  0  0  0  0  0  0  0  0  0  0  0
   -1.2759    0.7742    2.2150 H   0  0  0  0  0  0  0  0  0  0  0  0
   -0.9238   -0.1093    3.7277 H   0  0  0  0  0  0  0  0  0  0  0  0
   -3.2264   -0.5521    1.8981 H   0  0  0  0  0  0  0  0  0  0  0  0
   -3.2382    0.1356    3.5367 H   0  0  0  0  0  0  0  0  0  0  0  0
   -2.2358   -2.5300    3.2888 H   0  0  0  0  0  0  0  0  0  0  0  0
   -5.2787   -1.8137    6.4639 H   0  0  0  0  0  0  0  0  0  0  0  0
   -7.1232   -0.2791    6.8401 H   0  0  0  0  0  0  0  0  0  0  0  0
  -15.0307   -2.6308    2.2995 H   0  0  0  0  0  0  0  0  0  0  0  0
  -15.2984    0.5177   -0.4911 H   0  0  0  0  0  0  0  0  0  0  0  0
  -15.7816    2.3553    3.4784 H   0  0  0  0  0  0  0  0  0  0  0  0
  -16.1405    4.5188    4.8905 H   0  0  0  0  0  0  0  0  0  0  0  0
  -12.1587    3.4263    5.1787 H   0  0  0  0  0  0  0  0  0  0  0  0
  -16.1502    9.4288    6.2367 H   0  0  0  0  0  0  0  0  0  0  0  0
  -17.7157    6.2649    8.5432 H   0  0  0  0  0  0  0  0  0  0  0  0
   -7.6859    7.2034   11.6004 H   0  0  0  0  0  0  0  0  0  0  0  0
   -5.6331    8.5884    8.1877 H   0  0  0  0  0  0  0  0  0  0  0  0
   -6.3301    4.4370    7.6076 H   0  0  0  0  0  0  0  0  0  0  0  0
   -6.0046    2.2870    6.2931 H   0  0  0  0  0  0  0  0  0  0  0  0
   -9.9705    3.4512    5.8591 H   0  0  0  0  0  0  0  0  0  0  0  0
  -10.5235    7.6103    8.6107 H   0  0  0  0  0  0  0  0  0  0  0  0
  -13.0179    7.4770    8.0539 H   0  0  0  0  0  0  0  0  0  0  0  0
  -11.4685   -0.6404    2.3568 H   0  0  0  0  0  0  0  0  0  0  0  0
   -9.1432   -0.8992    3.3971 H   0  0  0  0  0  0  0  0  0  0  0  0
   -7.1258    0.7175    2.7455 H   0  0  0  0  0  0  0  0  0  0  0  0
   -5.4700   -1.0050    2.3370 H   0  0  0  0  0  0  0  0  0  0  0  0
   -0.9589   -4.2533   -4.1826 H   0  0  0  0  0  0  0  0  0  0  0  0
   -3.3412   -4.3580   -4.6019 H   0  0  0  0  0  0  0  0  0  0  0  0
   -6.9696   -1.8413   -4.0901 H   0  0  0  0  0  0  0  0  0  0  0  0
   -5.7076   -0.6501   -4.2933 H   0  0  0  0  0  0  0  0  0  0  0  0
   -5.9209   -1.4426   -2.7507 H   0  0  0  0  0  0  0  0  0  0  0  0
   -3.7669   -0.4155   -3.2310 H   0  0  0  0  0  0  0  0  0  0  0  0
   -1.3689   -0.2839   -2.8700 H   0  0  0  0  0  0  0  0  0  0  0  0
  1  2  1  0  0  0  0
  1 90  1  0  0  0  0
  1 91  1  0  0  0  0
  1 92  1  0  0  0  0
  2 93  1  0  0  0  0
  2 94  1  0  0  0  0
  3 80  1  0  0  0  0
  3  4  1  0  0  0  0
  3  2  1  0  0  0  0
  3 95  1  6  0  0  0
  4  5  2  0  0  0  0
  4  6  1  0  0  0  0
  6  7  1  0  0  0  0
  6 96  1  0  0  0  0
  7  8  1  0  0  0  0
  7 97  1  0  0  0  0
  7 98  1  0  0  0  0
  8  9  1  0  0  0  0
  8 99  1  0  0  0  0
  8100  1  0  0  0  0
  9 10  1  0  0  0  0
  9101  1  0  0  0  0
  9102  1  0  0  0  0
 10 11  1  0  0  0  0
 10103  1  0  0  0  0
 10104  1  0  0  0  0
 11 12  1  0  0  0  0
 11105  1  0  0  0  0
 12 13  2  0  0  0  0
 12 14  1  0  0  0  0
 14 15  1  0  0  0  0
 14 79  2  0  0  0  0
 15 16  2  0  0  0  0
 15106  1  0  0  0  0
 16 17  1  0  0  0  0
 16107  1  0  0  0  0
 17 18  1  0  0  0  0
 17 78  2  0  0  0  0
 18 19  1  0  0  0  0
 18 72  2  0  0  0  0
 19 20  2  0  0  0  0
 19 77  1  0  0  0  0
 20 21  1  0  0  0  0
 21 22  2  0  0  0  0
 21 76  1  0  0  0  0
 22 23  1  0  0  0  0
 22 35  1  0  0  0  0
 23 24  1  0  0  0  0
 23 33  2  0  0  0  0
 24 25  1  0  0  0  0
 24 26  2  0  0  0  0
 26 27  1  0  0  0  0
 26108  1  0  0  0  0
 27 28  1  0  0  0  0
 27 32  2  0  0  0  0
 28 29  2  0  0  0  0
 28 30  2  0  0  0  0
 28 31  1  0  0  0  0
 32 33  1  0  0  0  0
 32109  1  0  0  0  0
 33 34  1  0  0  0  0
 35 36  2  0  0  0  0
 35 39  1  0  0  0  0
 36 37  1  0  0  0  0
 36110  1  0  0  0  0
 37 38  2  0  0  0  0
 37111  1  0  0  0  0
 38 39  1  0  0  0  0
 38 40  1  0  0  0  0
 39112  1  0  0  0  0
 40 41  1  0  0  0  0
 40 53  2  0  0  0  0
 41 42  1  0  0  0  0
 41 51  2  0  0  0  0
 42 43  1  0  0  0  0
 42 44  2  0  0  0  0
 44 45  1  0  0  0  0
 44113  1  0  0  0  0
 45 46  1  0  0  0  0
 45 50  2  0  0  0  0
 46 47  2  0  0  0  0
 46 48  2  0  0  0  0
 46 49  1  0  0  0  0
 50 51  1  0  0  0  0
 50114  1  0  0  0  0
 51 52  1  0  0  0  0
 53 54  1  0  0  0  0
 53 75  1  0  0  0  0
 54 55  2  0  0  0  0
 55 56  1  0  0  0  0
 55 74  1  0  0  0  0
 56 57  1  0  0  0  0
 56 69  2  0  0  0  0
 57 58  1  0  0  0  0
 57 67  2  0  0  0  0
 58 59  1  0  0  0  0
 58 60  2  0  0  0  0
 60 61  1  0  0  0  0
 60115  1  0  0  0  0
 61 62  1  0  0  0  0
 61 66  2  0  0  0  0
 62 63  2  0  0  0  0
 62 64  2  0  0  0  0
 62 65  1  0  0  0  0
 66 67  1  0  0  0  0
 66116  1  0  0  0  0
 67 68  1  0  0  0  0
 69 70  1  0  0  0  0
 69 73  1  0  0  0  0
 70 71  2  0  0  0  0
 70117  1  0  0  0  0
 71 72  1  0  0  0  0
 71118  1  0  0  0  0
 72 73  1  0  0  0  0
 73119  1  0  0  0  0
 74 75  2  0  0  0  0
 74120  1  0  0  0  0
 75121  1  0  0  0  0
 76 77  2  0  0  0  0
 76122  1  0  0  0  0
 77123  1  0  0  0  0
 78 79  1  0  0  0  0
 78124  1  0  0  0  0
 79125  1  0  0  0  0
 80 81  2  0  0  0  0
 80 82  1  0  0  0  0
 82 83  1  0  0  0  0
 82 89  2  0  0  0  0
 83 84  2  0  0  0  0
 83126  1  0  0  0  0
 84 85  1  0  0  0  0
 84127  1  0  0  0  0
 85 86  1  0  0  0  0
 85 88  2  0  0  0  0
 86 87  1  0  0  0  0
 87128  1  0  0  0  0
 87129  1  0  0  0  0
 87130  1  0  0  0  0
 88 89  1  0  0  0  0
 88131  1  0  0  0  0
 89132  1  0  0  0  0
M  CHG  3  31  -1  49  -1  65  -1
M  END
$$$$
