4_2_3691
 OpenBabel04152301363D

141151  0  0  1  0  0  0  0  0999 V2000
   -8.2154   -2.9036   -8.8230 C   0  0  0  0  0  0  0  0  0  0  0  0
   -7.5771   -2.4087   -7.5612 C   0  0  0  0  0  0  0  0  0  0  0  0
   -7.1930   -3.3044   -6.5658 C   0  0  0  0  0  0  0  0  0  0  0  0
   -6.5590   -2.8522   -5.3985 C   0  0  0  0  0  0  0  0  0  0  0  0
   -6.2590   -1.4950   -5.1919 C   0  0  0  0  0  0  0  0  0  0  0  0
   -5.5533   -1.0402   -4.0005 N   0  0  0  0  0  0  0  0  0  0  0  0
   -4.6948   -2.0045   -3.2716 C   0  0  0  0  0  0  0  0  0  0  0  0
   -3.1885   -1.7313   -3.3894 C   0  0  0  0  0  0  0  0  0  0  0  0
   -2.6018   -1.0369   -2.5566 O   0  0  0  0  0  0  0  0  0  0  0  0
   -2.4689   -2.2416   -4.4276 N   0  0  0  0  0  0  0  0  0  0  0  0
   -2.9260   -2.9116   -5.6371 C   0  0  0  0  0  0  0  0  0  0  0  0
   -3.3038   -1.9042   -6.7158 C   0  0  0  0  0  0  0  0  0  0  0  0
   -2.0981   -1.2049   -7.3133 C   0  0  0  0  0  0  0  0  0  0  0  0
   -1.7228   -1.6835   -8.6305 N   0  0  0  0  0  0  0  0  0  0  0  0
   -0.7709   -1.1149   -9.4611 C   0  0  0  0  0  0  0  0  0  0  0  0
   -0.7093   -1.3415  -10.6555 O   0  0  0  0  0  0  0  0  0  0  0  0
    0.2871   -0.3394   -8.7779 C   0  0  0  0  0  0  0  0  0  0  0  0
    1.5246   -0.9765   -8.6265 C   0  0  0  0  0  0  0  0  0  0  0  0
    2.3805   -0.5734   -7.6058 C   0  0  0  0  0  0  0  0  0  0  0  0
    1.9581    0.4196   -6.7239 C   0  0  0  0  0  0  0  0  0  0  0  0
    2.6765    0.7723   -5.5025 C   0  0  0  0  0  0  0  0  0  0  0  0
    3.3961    2.0675   -5.4266 C   0  0  0  0  0  0  0  0  0  0  0  0
    4.3283    2.3445   -4.5779 N   0  0  0  0  0  0  0  0  0  0  0  0
    4.6062    3.6917   -4.6733 C   0  0  0  0  0  0  0  0  0  0  0  0
    5.3350    4.3017   -3.6926 C   0  0  0  0  0  0  0  0  0  0  0  0
    5.3555    5.8037   -3.4689 C   0  0  0  0  0  0  0  0  0  0  0  0
    5.4752    6.3381   -2.1659 C   0  0  0  0  0  0  0  0  0  0  0  0
    5.7461    5.5597   -1.1098 F   0  0  0  0  0  0  0  0  0  0  0  0
    5.3126    7.6958   -1.8789 C   0  0  0  0  0  0  0  0  0  0  0  0
    5.0142    8.5797   -2.9052 C   0  0  0  0  0  0  0  0  0  0  0  0
    4.7031   10.3094   -2.5035 S   0  0  0  0  0  0  0  0  0  0  0  0
    3.6589   10.2082   -1.4881 O   0  0  0  0  0  0  0  0  0  0  0  0
    6.0097   10.7511   -2.0289 O   0  0  0  0  0  0  0  0  0  0  0  0
    4.2727   10.8820   -3.7763 O   0  5  0  0  0  0  0  0  0  0  0  0
    4.9671    8.1267   -4.2151 C   0  0  0  0  0  0  0  0  0  0  0  0
    5.1932    6.7708   -4.4804 C   0  0  0  0  0  0  0  0  0  0  0  0
    5.3020    6.4466   -5.7756 F   0  0  0  0  0  0  0  0  0  0  0  0
    5.8079    3.3280   -2.7101 C   0  0  0  0  0  0  0  0  0  0  0  0
    5.3068    2.9205   -1.4843 C   0  0  0  0  0  0  0  0  0  0  0  0
    5.9261    1.6938   -1.1422 C   0  0  0  0  0  0  0  0  0  0  0  0
    6.8194    1.3661   -2.1475 C   0  0  0  0  0  0  0  0  0  0  0  0
    6.7734    2.3944   -3.0709 N   0  0  0  0  0  0  0  0  0  0  0  0
    7.7263    0.2415   -2.3224 C   0  0  0  0  0  0  0  0  0  0  0  0
    9.2121    0.4674   -2.1961 C   0  0  0  0  0  0  0  0  0  0  0  0
   10.1782   -0.2992   -2.8695 C   0  0  0  0  0  0  0  0  0  0  0  0
    9.8243   -1.3100   -3.6768 F   0  0  0  0  0  0  0  0  0  0  0  0
   11.5448   -0.0316   -2.7740 C   0  0  0  0  0  0  0  0  0  0  0  0
   11.9783    1.0664   -2.0378 C   0  0  0  0  0  0  0  0  0  0  0  0
   13.7368    1.4509   -1.9431 S   0  0  0  0  0  0  0  0  0  0  0  0
   14.1171    0.7696   -0.7098 O   0  0  0  0  0  0  0  0  0  0  0  0
   14.2669    0.8679   -3.1725 O   0  0  0  0  0  0  0  0  0  0  0  0
   13.7535    2.9092   -1.8933 O   0  5  0  0  0  0  0  0  0  0  0  0
   11.0613    1.8961   -1.4083 C   0  0  0  0  0  0  0  0  0  0  0  0
    9.7066    1.5795   -1.4741 C   0  0  0  0  0  0  0  0  0  0  0  0
    8.8804    2.4039   -0.8120 F   0  0  0  0  0  0  0  0  0  0  0  0
    7.1274   -0.9714   -2.5115 C   0  0  0  0  0  0  0  0  0  0  0  0
    5.7936   -1.0893   -2.8030 N   0  0  0  0  0  0  0  0  0  0  0  0
    5.5020   -2.3423   -3.0184 C   0  0  0  0  0  0  0  0  0  0  0  0
    4.1370   -2.8322   -3.4436 C   0  0  0  0  0  0  0  0  0  0  0  0
    3.8663   -3.7915   -4.5488 C   0  0  0  0  0  0  0  0  0  0  0  0
    2.8201   -4.7144   -4.3607 C   0  0  0  0  0  0  0  0  0  0  0  0
    2.4315   -5.0445   -3.1180 F   0  0  0  0  0  0  0  0  0  0  0  0
    2.0620   -5.1838   -5.4269 C   0  0  0  0  0  0  0  0  0  0  0  0
    2.3683   -4.7398   -6.7113 C   0  0  0  0  0  0  0  0  0  0  0  0
    1.1469   -5.0256   -8.0148 S   0  0  0  0  0  0  0  0  0  0  0  0
    0.9681   -6.4721   -7.9579 O   0  0  0  0  0  0  0  0  0  0  0  0
    0.0115   -4.2358   -7.5376 O   0  0  0  0  0  0  0  0  0  0  0  0
    1.8059   -4.5166   -9.2110 O   0  5  0  0  0  0  0  0  0  0  0  0
    3.5102   -3.9735   -6.9519 C   0  0  0  0  0  0  0  0  0  0  0  0
    4.2534   -3.5066   -5.8656 C   0  0  0  0  0  0  0  0  0  0  0  0
    5.2539   -2.6462   -6.1049 F   0  0  0  0  0  0  0  0  0  0  0  0
    3.1393   -1.9136   -3.2766 C   0  0  0  0  0  0  0  0  0  0  0  0
    3.1982   -0.8008   -2.3459 C   0  0  0  0  0  0  0  0  0  0  0  0
    2.9856    0.3219   -3.0480 C   0  0  0  0  0  0  0  0  0  0  0  0
    2.6279   -0.0328   -4.4185 C   0  0  0  0  0  0  0  0  0  0  0  0
    2.4123   -1.4120   -4.3741 N   0  0  0  0  0  0  0  0  0  0  0  0
    6.6530   -3.2212   -2.8240 C   0  0  0  0  0  0  0  0  0  0  0  0
    7.6143   -2.3381   -2.5006 C   0  0  0  0  0  0  0  0  0  0  0  0
    3.8669    4.1406   -5.8294 C   0  0  0  0  0  0  0  0  0  0  0  0
    3.1392    3.1563   -6.3629 C   0  0  0  0  0  0  0  0  0  0  0  0
    0.7619    1.1182   -6.9573 C   0  0  0  0  0  0  0  0  0  0  0  0
   -0.0444    0.7874   -8.0302 C   0  0  0  0  0  0  0  0  0  0  0  0
   -5.7276    0.2714   -3.5236 C   0  0  0  0  0  0  0  0  0  0  0  0
   -6.2654    1.1804   -4.1657 O   0  0  0  0  0  0  0  0  0  0  0  0
   -5.3870    0.5961   -2.0813 C   0  0  0  0  0  0  0  0  0  0  0  0
   -6.6046    0.5780   -1.1408 C   0  0  1  0  0  0  0  0  0  0  0  0
   -7.8690    1.3332   -1.6164 C   0  0  0  0  0  0  0  0  0  0  0  0
   -8.7318    0.5770   -2.5378 N   0  3  0  0  0  0  0  0  0  0  0  0
   -9.0331   -0.7277   -1.9423 C   0  0  0  0  0  0  0  0  0  0  0  0
   -7.7903   -1.4979   -1.4891 C   0  0  0  0  0  0  0  0  0  0  0  0
   -6.9131   -0.7419   -0.6517 O   0  0  0  0  0  0  0  0  0  0  0  0
   -6.6707   -0.6118   -6.2043 C   0  0  0  0  0  0  0  0  0  0  0  0
   -7.3171   -1.0556   -7.3674 C   0  0  0  0  0  0  0  0  0  0  0  0
   -8.3274   -3.9665   -8.7729 H   0  0  0  0  0  0  0  0  0  0  0  0
   -7.5977   -2.6490   -9.6588 H   0  0  0  0  0  0  0  0  0  0  0  0
   -9.1770   -2.4487   -8.9385 H   0  0  0  0  0  0  0  0  0  0  0  0
   -7.3769   -4.3125   -6.6883 H   0  0  0  0  0  0  0  0  0  0  0  0
   -6.3053   -3.5372   -4.6695 H   0  0  0  0  0  0  0  0  0  0  0  0
   -4.8882   -2.9831   -3.6586 H   0  0  0  0  0  0  0  0  0  0  0  0
   -4.9414   -1.9083   -2.2349 H   0  0  0  0  0  0  0  0  0  0  0  0
   -1.4926   -2.1425   -4.3482 H   0  0  0  0  0  0  0  0  0  0  0  0
   -3.7819   -3.5094   -5.4027 H   0  0  0  0  0  0  0  0  0  0  0  0
   -2.1294   -3.5222   -6.0078 H   0  0  0  0  0  0  0  0  0  0  0  0
   -3.9481   -1.1667   -6.2846 H   0  0  0  0  0  0  0  0  0  0  0  0
   -3.7884   -2.4418   -7.5039 H   0  0  0  0  0  0  0  0  0  0  0  0
   -1.2669   -1.3487   -6.6550 H   0  0  0  0  0  0  0  0  0  0  0  0
   -2.3657   -0.1750   -7.4260 H   0  0  0  0  0  0  0  0  0  0  0  0
   -2.1867   -2.4851   -8.9644 H   0  0  0  0  0  0  0  0  0  0  0  0
    1.7996   -1.7383   -9.2661 H   0  0  0  0  0  0  0  0  0  0  0  0
    3.3132   -1.0030   -7.5036 H   0  0  0  0  0  0  0  0  0  0  0  0
    5.4138    8.0383   -0.9107 H   0  0  0  0  0  0  0  0  0  0  0  0
    4.7674    8.7825   -4.9865 H   0  0  0  0  0  0  0  0  0  0  0  0
    4.6047    3.4232   -0.9192 H   0  0  0  0  0  0  0  0  0  0  0  0
    5.7431    1.1400   -0.2908 H   0  0  0  0  0  0  0  0  0  0  0  0
    7.3437    2.4568   -3.8709 H   0  0  0  0  0  0  0  0  0  0  0  0
   12.2286   -0.6437   -3.2460 H   0  0  0  0  0  0  0  0  0  0  0  0
   11.3785    2.7356   -0.8988 H   0  0  0  0  0  0  0  0  0  0  0  0
    1.2878   -5.8479   -5.2702 H   0  0  0  0  0  0  0  0  0  0  0  0
    3.8007   -3.7554   -7.9178 H   0  0  0  0  0  0  0  0  0  0  0  0
    3.3718   -0.8624   -1.3305 H   0  0  0  0  0  0  0  0  0  0  0  0
    3.0625    1.2825   -2.6788 H   0  0  0  0  0  0  0  0  0  0  0  0
    1.8558   -1.9362   -4.9944 H   0  0  0  0  0  0  0  0  0  0  0  0
    6.7125   -4.2477   -2.9117 H   0  0  0  0  0  0  0  0  0  0  0  0
    8.5853   -2.6019   -2.2713 H   0  0  0  0  0  0  0  0  0  0  0  0
    3.8972    5.1040   -6.1982 H   0  0  0  0  0  0  0  0  0  0  0  0
    2.5517    3.1638   -7.2113 H   0  0  0  0  0  0  0  0  0  0  0  0
    0.4833    1.8835   -6.3235 H   0  0  0  0  0  0  0  0  0  0  0  0
   -0.8690    1.3596   -8.2703 H   0  0  0  0  0  0  0  0  0  0  0  0
   -4.9491    1.5718   -2.0487 H   0  0  0  0  0  0  0  0  0  0  0  0
   -4.7155   -0.1635   -1.7392 H   0  0  0  0  0  0  0  0  0  0  0  0
   -6.2637    1.1699   -0.3172 H   0  0  0  0  0  0  0  0  0  0  0  0
   -7.5550    2.2273   -2.1133 H   0  0  0  0  0  0  0  0  0  0  0  0
   -8.4550    1.5191   -0.7406 H   0  0  0  0  0  0  0  0  0  0  0  0
   -8.2501    0.4445   -3.4271 H   0  0  0  0  0  0  0  0  0  0  0  0
   -9.5977    1.0909   -2.7009 H   0  0  0  0  0  0  0  0  0  0  0  0
   -9.5511   -1.3190   -2.6682 H   0  0  0  0  0  0  0  0  0  0  0  0
   -9.6236   -0.5445   -1.0690 H   0  0  0  0  0  0  0  0  0  0  0  0
   -7.2465   -1.8017   -2.3591 H   0  0  0  0  0  0  0  0  0  0  0  0
   -8.1344   -2.3282   -0.9085 H   0  0  0  0  0  0  0  0  0  0  0  0
   -6.4914    0.3978   -6.0882 H   0  0  0  0  0  0  0  0  0  0  0  0
   -7.6025   -0.3722   -8.0861 H   0  0  0  0  0  0  0  0  0  0  0  0
  1  2  1  0  0  0  0
  1 94  1  0  0  0  0
  1 95  1  0  0  0  0
  1 96  1  0  0  0  0
  2  3  1  0  0  0  0
  2 93  2  0  0  0  0
  3  4  2  0  0  0  0
  3 97  1  0  0  0  0
  4  5  1  0  0  0  0
  4 98  1  0  0  0  0
  5  6  1  0  0  0  0
  5 92  2  0  0  0  0
  6  7  1  0  0  0  0
  6 83  1  0  0  0  0
  7  8  1  0  0  0  0
  7 99  1  0  0  0  0
  7100  1  0  0  0  0
  8  9  2  0  0  0  0
  8 10  1  0  0  0  0
 10 11  1  0  0  0  0
 10101  1  0  0  0  0
 11 12  1  0  0  0  0
 11102  1  0  0  0  0
 11103  1  0  0  0  0
 12 13  1  0  0  0  0
 12104  1  0  0  0  0
 12105  1  0  0  0  0
 13 14  1  0  0  0  0
 13106  1  0  0  0  0
 13107  1  0  0  0  0
 14 15  1  0  0  0  0
 14108  1  0  0  0  0
 15 16  2  0  0  0  0
 15 17  1  0  0  0  0
 17 18  1  0  0  0  0
 17 82  2  0  0  0  0
 18 19  2  0  0  0  0
 18109  1  0  0  0  0
 19 20  1  0  0  0  0
 19110  1  0  0  0  0
 20 21  1  0  0  0  0
 20 81  2  0  0  0  0
 21 22  1  0  0  0  0
 21 75  2  0  0  0  0
 22 23  2  0  0  0  0
 22 80  1  0  0  0  0
 23 24  1  0  0  0  0
 24 25  2  0  0  0  0
 24 79  1  0  0  0  0
 25 26  1  0  0  0  0
 25 38  1  0  0  0  0
 26 27  1  0  0  0  0
 26 36  2  0  0  0  0
 27 28  1  0  0  0  0
 27 29  2  0  0  0  0
 29 30  1  0  0  0  0
 29111  1  0  0  0  0
 30 31  1  0  0  0  0
 30 35  2  0  0  0  0
 31 32  2  0  0  0  0
 31 33  2  0  0  0  0
 31 34  1  0  0  0  0
 35 36  1  0  0  0  0
 35112  1  0  0  0  0
 36 37  1  0  0  0  0
 38 39  2  0  0  0  0
 38 42  1  0  0  0  0
 39 40  1  0  0  0  0
 39113  1  0  0  0  0
 40 41  2  0  0  0  0
 40114  1  0  0  0  0
 41 42  1  0  0  0  0
 41 43  1  0  0  0  0
 42115  1  0  0  0  0
 43 44  1  0  0  0  0
 43 56  2  0  0  0  0
 44 45  1  0  0  0  0
 44 54  2  0  0  0  0
 45 46  1  0  0  0  0
 45 47  2  0  0  0  0
 47 48  1  0  0  0  0
 47116  1  0  0  0  0
 48 49  1  0  0  0  0
 48 53  2  0  0  0  0
 49 50  2  0  0  0  0
 49 51  2  0  0  0  0
 49 52  1  0  0  0  0
 53 54  1  0  0  0  0
 53117  1  0  0  0  0
 54 55  1  0  0  0  0
 56 57  1  0  0  0  0
 56 78  1  0  0  0  0
 57 58  2  0  0  0  0
 58 59  1  0  0  0  0
 58 77  1  0  0  0  0
 59 60  1  0  0  0  0
 59 72  2  0  0  0  0
 60 61  1  0  0  0  0
 60 70  2  0  0  0  0
 61 62  1  0  0  0  0
 61 63  2  0  0  0  0
 63 64  1  0  0  0  0
 63118  1  0  0  0  0
 64 65  1  0  0  0  0
 64 69  2  0  0  0  0
 65 66  2  0  0  0  0
 65 67  2  0  0  0  0
 65 68  1  0  0  0  0
 69 70  1  0  0  0  0
 69119  1  0  0  0  0
 70 71  1  0  0  0  0
 72 73  1  0  0  0  0
 72 76  1  0  0  0  0
 73 74  2  0  0  0  0
 73120  1  0  0  0  0
 74 75  1  0  0  0  0
 74121  1  0  0  0  0
 75 76  1  0  0  0  0
 76122  1  0  0  0  0
 77 78  2  0  0  0  0
 77123  1  0  0  0  0
 78124  1  0  0  0  0
 79 80  2  0  0  0  0
 79125  1  0  0  0  0
 80126  1  0  0  0  0
 81 82  1  0  0  0  0
 81127  1  0  0  0  0
 82128  1  0  0  0  0
 83 84  2  0  0  0  0
 83 85  1  0  0  0  0
 85129  1  0  0  0  0
 85130  1  0  0  0  0
 86 87  1  0  0  0  0
 86 91  1  0  0  0  0
 86 85  1  0  0  0  0
 86131  1  1  0  0  0
 87 88  1  0  0  0  0
 87132  1  0  0  0  0
 87133  1  0  0  0  0
 88 89  1  0  0  0  0
 88134  1  0  0  0  0
 88135  1  0  0  0  0
 89 90  1  0  0  0  0
 89136  1  0  0  0  0
 89137  1  0  0  0  0
 90 91  1  0  0  0  0
 90138  1  0  0  0  0
 90139  1  0  0  0  0
 92 93  1  0  0  0  0
 92140  1  0  0  0  0
 93141  1  0  0  0  0
M  CHG  4  34  -1  52  -1  68  -1  88   1
M  END
$$$$
