4_2_7784
 OpenBabel04152301373D

140150  0  0  1  0  0  0  0  0999 V2000
    0.8092   -0.0380   -0.1258 C   0  0  0  0  0  0  0  0  0  0  0  0
    0.5944    1.4652   -0.1206 C   0  0  0  0  0  0  0  0  0  0  0  0
    1.1862    2.0685   -1.2783 O   0  0  0  0  0  0  0  0  0  0  0  0
    2.5102    2.2958   -1.1914 C   0  0  0  0  0  0  0  0  0  0  0  0
    3.2645    1.9741   -0.2917 O   0  0  0  0  0  0  0  0  0  0  0  0
    3.0163    2.9672   -2.4394 C   0  0  0  0  0  0  0  0  0  0  0  0
    2.3703    3.8792   -3.1000 N   0  0  0  0  0  0  0  0  0  0  0  0
    3.2028    4.2668   -4.1258 N   0  0  0  0  0  0  0  0  0  0  0  0
    2.8090    5.3817   -4.8560 C   0  0  0  0  0  0  0  0  0  0  0  0
    2.4697    6.5674   -4.1697 C   0  0  0  0  0  0  0  0  0  0  0  0
    2.1137    7.7422   -4.8415 C   0  0  0  0  0  0  0  0  0  0  0  0
    2.0941    7.7465   -6.2336 C   0  0  0  0  0  0  0  0  0  0  0  0
    1.8387    8.9956   -6.9625 N   0  3  0  0  0  0  0  0  0  0  0  0
    1.7836   10.0413   -6.3032 O   0  0  0  0  0  0  0  0  0  0  0  0
    1.7440    8.9247   -8.1955 O   0  5  0  0  0  0  0  0  0  0  0  0
    2.3449    6.5651   -6.9397 C   0  0  0  0  0  0  0  0  0  0  0  0
    2.6614    5.3662   -6.2566 C   0  0  0  0  0  0  0  0  0  0  0  0
    2.7895    4.1132   -7.0884 C   0  0  0  0  0  0  0  0  0  0  0  0
    1.8902    4.0753   -8.1151 F   0  0  0  0  0  0  0  0  0  0  0  0
    4.0132    4.0255   -7.6859 F   0  0  0  0  0  0  0  0  0  0  0  0
    2.6171    2.9396   -6.4217 F   0  0  0  0  0  0  0  0  0  0  0  0
    4.6049    3.8214   -3.8741 C   0  0  1  0  0  0  0  0  0  0  0  0
    5.3792    3.3670   -5.1052 C   0  0  0  0  0  0  0  0  0  0  0  0
    5.4125    4.8138   -2.9825 C   0  0  0  0  0  0  0  0  0  0  0  0
    5.5176    4.6315   -1.7609 O   0  0  0  0  0  0  0  0  0  0  0  0
    6.0796    5.9055   -3.4354 N   0  0  0  0  0  0  0  0  0  0  0  0
    6.1294    6.5986   -4.7101 C   0  0  0  0  0  0  0  0  0  0  0  0
    5.6934    8.0555   -4.5751 C   0  0  0  0  0  0  0  0  0  0  0  0
    6.5866    8.9287   -3.7027 C   0  0  0  0  0  0  0  0  0  0  0  0
    7.8133    9.3241   -4.3683 N   0  0  0  0  0  0  0  0  0  0  0  0
    8.2246   10.5638   -4.7990 C   0  0  0  0  0  0  0  0  0  0  0  0
    9.2346   10.6440   -5.4946 O   0  0  0  0  0  0  0  0  0  0  0  0
    7.4597   11.7908   -4.4643 C   0  0  0  0  0  0  0  0  0  0  0  0
    7.2907   12.7625   -5.4562 C   0  0  0  0  0  0  0  0  0  0  0  0
    6.5622   13.9250   -5.1831 C   0  0  0  0  0  0  0  0  0  0  0  0
    5.9654   14.1138   -3.9266 C   0  0  0  0  0  0  0  0  0  0  0  0
    5.1502   15.3233   -3.6368 C   0  0  0  0  0  0  0  0  0  0  0  0
    5.6027   16.3173   -2.6003 C   0  0  0  0  0  0  0  0  0  0  0  0
    4.9906   17.3861   -2.1576 N   0  0  0  0  0  0  0  0  0  0  0  0
    5.8035   17.9029   -1.1563 C   0  0  0  0  0  0  0  0  0  0  0  0
    5.6228   19.0142   -0.4028 C   0  0  0  0  0  0  0  0  0  0  0  0
    6.6509   19.2951    0.6534 C   0  0  0  0  0  0  0  0  0  0  0  0
    7.9068   19.8307    0.3301 C   0  0  0  0  0  0  0  0  0  0  0  0
    8.2186   20.0966   -0.9481 F   0  0  0  0  0  0  0  0  0  0  0  0
    8.8746   20.0492    1.3049 C   0  0  0  0  0  0  0  0  0  0  0  0
    8.5793   19.7402    2.6339 C   0  0  0  0  0  0  0  0  0  0  0  0
    9.8450   19.9939    3.8964 S   0  0  0  0  0  0  0  0  0  0  0  0
   10.6026   18.7502    3.7982 O   0  0  0  0  0  0  0  0  0  0  0  0
   10.5337   21.1920    3.4268 O   0  0  0  0  0  0  0  0  0  0  0  0
    9.0668   20.1634    5.1194 O   0  5  0  0  0  0  0  0  0  0  0  0
    7.3269   19.2432    2.9957 C   0  0  0  0  0  0  0  0  0  0  0  0
    6.3797   19.0169    2.0020 C   0  0  0  0  0  0  0  0  0  0  0  0
    5.1936   18.5014    2.3610 F   0  0  0  0  0  0  0  0  0  0  0  0
    4.5230   19.9294   -0.5493 C   0  0  0  0  0  0  0  0  0  0  0  0
    4.2929   21.1175    0.1234 C   0  0  0  0  0  0  0  0  0  0  0  0
    3.0998   21.6706   -0.3594 C   0  0  0  0  0  0  0  0  0  0  0  0
    2.5963   20.8321   -1.3404 C   0  0  0  0  0  0  0  0  0  0  0  0
    3.4751   19.7666   -1.4419 N   0  0  0  0  0  0  0  0  0  0  0  0
    1.4030   20.9892   -2.1308 C   0  0  0  0  0  0  0  0  0  0  0  0
    0.5716   22.2171   -1.9112 C   0  0  0  0  0  0  0  0  0  0  0  0
   -0.5806   22.1808   -1.1121 C   0  0  0  0  0  0  0  0  0  0  0  0
   -0.9826   21.0259   -0.5588 F   0  0  0  0  0  0  0  0  0  0  0  0
   -1.3418   23.3229   -0.8866 C   0  0  0  0  0  0  0  0  0  0  0  0
   -0.9415   24.5292   -1.4648 C   0  0  0  0  0  0  0  0  0  0  0  0
   -1.9110   26.0196   -1.1474 S   0  0  0  0  0  0  0  0  0  0  0  0
   -2.9585   25.9078   -2.1567 O   0  0  0  0  0  0  0  0  0  0  0  0
   -2.3417   25.8351    0.2353 O   0  0  0  0  0  0  0  0  0  0  0  0
   -0.9463   27.0955   -1.3558 O   0  5  0  0  0  0  0  0  0  0  0  0
    0.2086   24.6029   -2.2516 C   0  0  0  0  0  0  0  0  0  0  0  0
    0.9489   23.4460   -2.4729 C   0  0  0  0  0  0  0  0  0  0  0  0
    2.0464   23.5295   -3.2411 F   0  0  0  0  0  0  0  0  0  0  0  0
    0.9715   20.1109   -3.0682 C   0  0  0  0  0  0  0  0  0  0  0  0
    1.5472   18.9115   -3.4689 N   0  0  0  0  0  0  0  0  0  0  0  0
    0.7500   18.4223   -4.3874 C   0  0  0  0  0  0  0  0  0  0  0  0
    0.8836   17.1462   -5.1671 C   0  0  0  0  0  0  0  0  0  0  0  0
   -0.1442   16.7551   -6.1623 C   0  0  0  0  0  0  0  0  0  0  0  0
   -0.1689   17.3480   -7.4323 C   0  0  0  0  0  0  0  0  0  0  0  0
    0.7191   18.3049   -7.7427 F   0  0  0  0  0  0  0  0  0  0  0  0
   -1.1042   16.9738   -8.3904 C   0  0  0  0  0  0  0  0  0  0  0  0
   -2.0323   15.9792   -8.0765 C   0  0  0  0  0  0  0  0  0  0  0  0
   -3.2068   15.4474   -9.3422 S   0  0  0  0  0  0  0  0  0  0  0  0
   -4.2493   16.4591   -9.2165 O   0  0  0  0  0  0  0  0  0  0  0  0
   -2.4059   15.5062  -10.5613 O   0  0  0  0  0  0  0  0  0  0  0  0
   -3.5731   14.1024   -8.9083 O   0  5  0  0  0  0  0  0  0  0  0  0
   -2.0312   15.3632   -6.8242 C   0  0  0  0  0  0  0  0  0  0  0  0
   -1.0934   15.7636   -5.8778 C   0  0  0  0  0  0  0  0  0  0  0  0
   -1.0986   15.1628   -4.6779 F   0  0  0  0  0  0  0  0  0  0  0  0
    1.9644   16.3634   -4.9868 C   0  0  0  0  0  0  0  0  0  0  0  0
    2.2192   15.1041   -5.6801 C   0  0  0  0  0  0  0  0  0  0  0  0
    3.3850   14.5942   -5.2494 C   0  0  0  0  0  0  0  0  0  0  0  0
    3.9721   15.5057   -4.2652 C   0  0  0  0  0  0  0  0  0  0  0  0
    3.0529   16.5200   -4.1627 N   0  0  0  0  0  0  0  0  0  0  0  0
   -0.4284   19.2543   -4.6704 C   0  0  0  0  0  0  0  0  0  0  0  0
   -0.2349   20.2809   -3.8524 C   0  0  0  0  0  0  0  0  0  0  0  0
    6.9470   17.0216   -1.0459 C   0  0  0  0  0  0  0  0  0  0  0  0
    6.9003   16.0597   -1.9566 C   0  0  0  0  0  0  0  0  0  0  0  0
    6.1621   13.1452   -2.9316 C   0  0  0  0  0  0  0  0  0  0  0  0
    6.9490   12.0195   -3.1830 C   0  0  0  0  0  0  0  0  0  0  0  0
    4.3324    2.5612   -3.0085 C   0  0  0  0  0  0  0  0  0  0  0  0
    0.3597   -0.4655    0.7460 H   0  0  0  0  0  0  0  0  0  0  0  0
    1.8583   -0.2484   -0.1259 H   0  0  0  0  0  0  0  0  0  0  0  0
    0.3609   -0.4593   -1.0012 H   0  0  0  0  0  0  0  0  0  0  0  0
    1.0415    1.8803    0.7584 H   0  0  0  0  0  0  0  0  0  0  0  0
   -0.4574    1.6611   -0.1319 H   0  0  0  0  0  0  0  0  0  0  0  0
    2.4847    6.5680   -3.1378 H   0  0  0  0  0  0  0  0  0  0  0  0
    1.8690    8.5937   -4.3123 H   0  0  0  0  0  0  0  0  0  0  0  0
    2.2986    6.5676   -7.9707 H   0  0  0  0  0  0  0  0  0  0  0  0
    5.5861    4.2119   -5.7283 H   0  0  0  0  0  0  0  0  0  0  0  0
    4.7955    2.6556   -5.6511 H   0  0  0  0  0  0  0  0  0  0  0  0
    6.2997    2.9145   -4.8006 H   0  0  0  0  0  0  0  0  0  0  0  0
    6.6549    6.3169   -2.7505 H   0  0  0  0  0  0  0  0  0  0  0  0
    5.4782    6.1038   -5.4001 H   0  0  0  0  0  0  0  0  0  0  0  0
    7.1403    6.5829   -5.0603 H   0  0  0  0  0  0  0  0  0  0  0  0
    4.7092    8.0676   -4.1555 H   0  0  0  0  0  0  0  0  0  0  0  0
    5.7473    8.4710   -5.5597 H   0  0  0  0  0  0  0  0  0  0  0  0
    6.8390    8.3823   -2.8180 H   0  0  0  0  0  0  0  0  0  0  0  0
    6.0415    9.8214   -3.4775 H   0  0  0  0  0  0  0  0  0  0  0  0
    8.4495    8.5922   -4.5379 H   0  0  0  0  0  0  0  0  0  0  0  0
    7.7042   12.6215   -6.3912 H   0  0  0  0  0  0  0  0  0  0  0  0
    6.4627   14.6496   -5.9111 H   0  0  0  0  0  0  0  0  0  0  0  0
    9.7974   20.4341    1.0495 H   0  0  0  0  0  0  0  0  0  0  0  0
    7.1066   19.0466    3.9845 H   0  0  0  0  0  0  0  0  0  0  0  0
    4.8964   21.5253    0.8545 H   0  0  0  0  0  0  0  0  0  0  0  0
    2.6695   22.5522   -0.0390 H   0  0  0  0  0  0  0  0  0  0  0  0
    3.3709   19.0054   -2.0575 H   0  0  0  0  0  0  0  0  0  0  0  0
   -2.1901   23.2794   -0.3005 H   0  0  0  0  0  0  0  0  0  0  0  0
    0.5054   25.5016   -2.6629 H   0  0  0  0  0  0  0  0  0  0  0  0
   -1.1123   17.4241   -9.3189 H   0  0  0  0  0  0  0  0  0  0  0  0
   -2.7151   14.6225   -6.6037 H   0  0  0  0  0  0  0  0  0  0  0  0
    1.6027   14.6746   -6.3875 H   0  0  0  0  0  0  0  0  0  0  0  0
    3.8004   13.7027   -5.5621 H   0  0  0  0  0  0  0  0  0  0  0  0
    3.1631   17.2874   -3.5559 H   0  0  0  0  0  0  0  0  0  0  0  0
   -1.2025   19.0846   -5.3314 H   0  0  0  0  0  0  0  0  0  0  0  0
   -0.8635   21.0965   -3.7835 H   0  0  0  0  0  0  0  0  0  0  0  0
    7.7004   17.1285   -0.3488 H   0  0  0  0  0  0  0  0  0  0  0  0
    7.5932   15.3226   -2.1608 H   0  0  0  0  0  0  0  0  0  0  0  0
    5.7217   13.2654   -2.0061 H   0  0  0  0  0  0  0  0  0  0  0  0
    7.1542   11.3545   -2.4210 H   0  0  0  0  0  0  0  0  0  0  0  0
    4.2592    1.6730   -3.6007 H   0  0  0  0  0  0  0  0  0  0  0  0
    5.0910    2.3130   -2.2959 H   0  0  0  0  0  0  0  0  0  0  0  0
  1  2  1  0  0  0  0
  1100  1  0  0  0  0
  1101  1  0  0  0  0
  1102  1  0  0  0  0
  2  3  1  0  0  0  0
  2103  1  0  0  0  0
  2104  1  0  0  0  0
  3  4  1  0  0  0  0
  4  5  2  0  0  0  0
  4  6  1  0  0  0  0
  6  7  2  0  0  0  0
  6 99  1  0  0  0  0
  7  8  1  0  0  0  0
  8  9  1  0  0  0  0
  8 22  1  0  0  0  0
  9 10  1  0  0  0  0
  9 17  2  0  0  0  0
 10 11  2  0  0  0  0
 10105  1  0  0  0  0
 11 12  1  0  0  0  0
 11106  1  0  0  0  0
 12 13  1  0  0  0  0
 12 16  2  0  0  0  0
 13 14  2  0  0  0  0
 13 15  1  0  0  0  0
 16 17  1  0  0  0  0
 16107  1  0  0  0  0
 17 18  1  0  0  0  0
 18 19  1  0  0  0  0
 18 20  1  0  0  0  0
 18 21  1  0  0  0  0
 22 23  1  0  0  0  0
 22 24  1  1  0  0  0
 22 99  1  0  0  0  0
 23108  1  0  0  0  0
 23109  1  0  0  0  0
 23110  1  0  0  0  0
 24 25  2  0  0  0  0
 24 26  1  0  0  0  0
 26 27  1  0  0  0  0
 26111  1  0  0  0  0
 27 28  1  0  0  0  0
 27112  1  0  0  0  0
 27113  1  0  0  0  0
 28 29  1  0  0  0  0
 28114  1  0  0  0  0
 28115  1  0  0  0  0
 29 30  1  0  0  0  0
 29116  1  0  0  0  0
 29117  1  0  0  0  0
 30 31  1  0  0  0  0
 30118  1  0  0  0  0
 31 32  2  0  0  0  0
 31 33  1  0  0  0  0
 33 34  1  0  0  0  0
 33 98  2  0  0  0  0
 34 35  2  0  0  0  0
 34119  1  0  0  0  0
 35 36  1  0  0  0  0
 35120  1  0  0  0  0
 36 37  1  0  0  0  0
 36 97  2  0  0  0  0
 37 38  1  0  0  0  0
 37 91  2  0  0  0  0
 38 39  2  0  0  0  0
 38 96  1  0  0  0  0
 39 40  1  0  0  0  0
 40 41  2  0  0  0  0
 40 95  1  0  0  0  0
 41 42  1  0  0  0  0
 41 54  1  0  0  0  0
 42 43  1  0  0  0  0
 42 52  2  0  0  0  0
 43 44  1  0  0  0  0
 43 45  2  0  0  0  0
 45 46  1  0  0  0  0
 45121  1  0  0  0  0
 46 47  1  0  0  0  0
 46 51  2  0  0  0  0
 47 48  2  0  0  0  0
 47 49  2  0  0  0  0
 47 50  1  0  0  0  0
 51 52  1  0  0  0  0
 51122  1  0  0  0  0
 52 53  1  0  0  0  0
 54 55  2  0  0  0  0
 54 58  1  0  0  0  0
 55 56  1  0  0  0  0
 55123  1  0  0  0  0
 56 57  2  0  0  0  0
 56124  1  0  0  0  0
 57 58  1  0  0  0  0
 57 59  1  0  0  0  0
 58125  1  0  0  0  0
 59 60  1  0  0  0  0
 59 72  2  0  0  0  0
 60 61  1  0  0  0  0
 60 70  2  0  0  0  0
 61 62  1  0  0  0  0
 61 63  2  0  0  0  0
 63 64  1  0  0  0  0
 63126  1  0  0  0  0
 64 65  1  0  0  0  0
 64 69  2  0  0  0  0
 65 66  2  0  0  0  0
 65 67  2  0  0  0  0
 65 68  1  0  0  0  0
 69 70  1  0  0  0  0
 69127  1  0  0  0  0
 70 71  1  0  0  0  0
 72 73  1  0  0  0  0
 72 94  1  0  0  0  0
 73 74  2  0  0  0  0
 74 75  1  0  0  0  0
 74 93  1  0  0  0  0
 75 76  1  0  0  0  0
 75 88  2  0  0  0  0
 76 77  1  0  0  0  0
 76 86  2  0  0  0  0
 77 78  1  0  0  0  0
 77 79  2  0  0  0  0
 79 80  1  0  0  0  0
 79128  1  0  0  0  0
 80 81  1  0  0  0  0
 80 85  2  0  0  0  0
 81 82  2  0  0  0  0
 81 83  2  0  0  0  0
 81 84  1  0  0  0  0
 85 86  1  0  0  0  0
 85129  1  0  0  0  0
 86 87  1  0  0  0  0
 88 89  1  0  0  0  0
 88 92  1  0  0  0  0
 89 90  2  0  0  0  0
 89130  1  0  0  0  0
 90 91  1  0  0  0  0
 90131  1  0  0  0  0
 91 92  1  0  0  0  0
 92132  1  0  0  0  0
 93 94  2  0  0  0  0
 93133  1  0  0  0  0
 94134  1  0  0  0  0
 95 96  2  0  0  0  0
 95135  1  0  0  0  0
 96136  1  0  0  0  0
 97 98  1  0  0  0  0
 97137  1  0  0  0  0
 98138  1  0  0  0  0
 99139  1  0  0  0  0
 99140  1  0  0  0  0
M  CHG  5  13   1  15  -1  50  -1  68  -1  84  -1
M  END
$$$$
