4_2_6196
 OpenBabel04152300273D

152164  0  0  1  0  0  0  0  0999 V2000
    0.8438   -0.9802    2.7600 C   0  0  0  0  0  0  0  0  0  0  0  0
    0.3677   -1.1777    1.3262 C   0  0  2  0  0  0  0  0  0  0  0  0
    0.9840   -0.3029    0.3213 N   0  0  0  0  0  0  0  0  0  0  0  0
    2.6195   -0.1813    0.0988 S   0  0  0  0  0  0  0  0  0  0  0  0
    2.7977    0.5964   -1.1084 O   0  0  0  0  0  0  0  0  0  0  0  0
    3.2276    0.2357    1.3419 O   0  0  0  0  0  0  0  0  0  0  0  0
    3.1653   -1.8478   -0.2449 C   0  0  0  0  0  0  0  0  0  0  0  0
    3.5481   -2.6603    0.8269 C   0  0  0  0  0  0  0  0  0  0  0  0
    4.5022   -3.6608    0.6368 C   0  0  0  0  0  0  0  0  0  0  0  0
    5.1651   -3.7366   -0.5994 C   0  0  0  0  0  0  0  0  0  0  0  0
    6.6693   -3.5745   -0.5422 C   0  0  0  0  0  0  0  0  0  0  0  0
    7.4709   -3.8922   -1.6245 C   0  0  0  0  0  0  0  0  0  0  0  0
    8.0770   -2.8270   -2.3056 C   0  0  0  0  0  0  0  0  0  0  0  0
    9.0897   -3.0251   -3.3655 C   0  0  0  0  0  0  0  0  0  0  0  0
   10.1872   -2.1385   -3.4374 C   0  0  0  0  0  0  0  0  0  0  0  0
   11.1649   -2.2532   -4.4242 C   0  0  0  0  0  0  0  0  0  0  0  0
   11.0877   -3.2870   -5.3471 C   0  0  0  0  0  0  0  0  0  0  0  0
   10.0390   -4.2029   -5.2745 C   0  0  0  0  0  0  0  0  0  0  0  0
    9.0470   -4.0737   -4.2934 C   0  0  0  0  0  0  0  0  0  0  0  0
    7.6209   -1.5275   -1.9546 C   0  0  0  0  0  0  0  0  0  0  0  0
    7.5017   -0.4581   -2.8703 C   0  0  0  0  0  0  0  0  0  0  0  0
    6.8533    0.7229   -2.4891 C   0  0  0  0  0  0  0  0  0  0  0  0
    6.4707    1.6983   -3.5161 N   0  3  0  0  0  0  0  0  0  0  0  0
    6.5697    1.3442   -4.7004 O   0  0  0  0  0  0  0  0  0  0  0  0
    6.0523    2.7979   -3.1365 O   0  5  0  0  0  0  0  0  0  0  0  0
    6.4616    0.9180   -1.1646 C   0  0  0  0  0  0  0  0  0  0  0  0
    6.6312   -0.1222   -0.2495 C   0  0  0  0  0  0  0  0  0  0  0  0
    7.1147   -1.3590   -0.6585 C   0  0  0  0  0  0  0  0  0  0  0  0
    6.9152   -2.4164    0.1200 N   0  0  0  0  0  0  0  0  0  0  0  0
    4.5180   -3.1718   -1.7291 C   0  0  0  0  0  0  0  0  0  0  0  0
    3.5532   -2.1755   -1.5443 C   0  0  0  0  0  0  0  0  0  0  0  0
   -1.1482   -0.9715    1.2543 C   0  0  0  0  0  0  0  0  0  0  0  0
   -1.9021   -1.9124    0.9938 O   0  0  0  0  0  0  0  0  0  0  0  0
   -1.7020    0.2567    1.4710 N   0  0  0  0  0  0  0  0  0  0  0  0
   -1.0711    1.5335    1.7794 C   0  0  0  0  0  0  0  0  0  0  0  0
   -1.3994    2.6075    0.7535 C   0  0  0  0  0  0  0  0  0  0  0  0
   -2.8860    2.9080    0.6219 C   0  0  0  0  0  0  0  0  0  0  0  0
   -3.4792    3.3860    1.8644 N   0  0  0  0  0  0  0  0  0  0  0  0
   -4.0483    4.6025    2.1558 C   0  0  0  0  0  0  0  0  0  0  0  0
   -4.3283    4.8818    3.3176 O   0  0  0  0  0  0  0  0  0  0  0  0
   -4.2970    5.5766    1.0732 C   0  0  0  0  0  0  0  0  0  0  0  0
   -3.9350    6.9122    1.2640 C   0  0  0  0  0  0  0  0  0  0  0  0
   -4.0674    7.8195    0.2105 C   0  0  0  0  0  0  0  0  0  0  0  0
   -4.5173    7.3848   -1.0469 C   0  0  0  0  0  0  0  0  0  0  0  0
   -4.5536    8.2967   -2.2182 C   0  0  0  0  0  0  0  0  0  0  0  0
   -5.8627    8.6111   -2.8884 C   0  0  0  0  0  0  0  0  0  0  0  0
   -6.0875    9.2899   -3.9832 N   0  0  0  0  0  0  0  0  0  0  0  0
   -7.4612    9.2373   -4.1862 C   0  0  0  0  0  0  0  0  0  0  0  0
   -8.1969    9.8344   -5.1539 C   0  0  0  0  0  0  0  0  0  0  0  0
   -9.6836    9.6090   -5.1368 C   0  0  0  0  0  0  0  0  0  0  0  0
  -10.5030   10.1786   -4.1489 C   0  0  0  0  0  0  0  0  0  0  0  0
   -9.9626   10.9096   -3.1609 F   0  0  0  0  0  0  0  0  0  0  0  0
  -11.8779    9.9692   -4.1342 C   0  0  0  0  0  0  0  0  0  0  0  0
  -12.4570    9.1964   -5.1418 C   0  0  0  0  0  0  0  0  0  0  0  0
  -14.2429    8.9355   -5.1091 S   0  0  0  0  0  0  0  0  0  0  0  0
  -14.3772    7.9847   -4.0097 O   0  0  0  0  0  0  0  0  0  0  0  0
  -14.7508   10.2789   -4.8497 O   0  0  0  0  0  0  0  0  0  0  0  0
  -14.5336    8.4043   -6.4370 O   0  5  0  0  0  0  0  0  0  0  0  0
  -11.6794    8.6399   -6.1565 C   0  0  0  0  0  0  0  0  0  0  0  0
  -10.3018    8.8401   -6.1360 C   0  0  0  0  0  0  0  0  0  0  0  0
   -9.5661    8.2715   -7.1041 F   0  0  0  0  0  0  0  0  0  0  0  0
   -7.6425   10.6709   -6.1860 C   0  0  0  0  0  0  0  0  0  0  0  0
   -8.3095   11.3769   -7.1716 C   0  0  0  0  0  0  0  0  0  0  0  0
   -7.3564   12.0130   -7.9744 C   0  0  0  0  0  0  0  0  0  0  0  0
   -6.0979   11.7390   -7.4630 C   0  0  0  0  0  0  0  0  0  0  0  0
   -6.2885   10.9130   -6.3676 N   0  0  0  0  0  0  0  0  0  0  0  0
   -4.8167   12.1934   -7.9438 C   0  0  0  0  0  0  0  0  0  0  0  0
   -4.7998   13.0684   -9.1656 C   0  0  0  0  0  0  0  0  0  0  0  0
   -4.3674   12.5842  -10.4096 C   0  0  0  0  0  0  0  0  0  0  0  0
   -3.8980   11.3314  -10.5211 F   0  0  0  0  0  0  0  0  0  0  0  0
   -4.3880   13.3849  -11.5467 C   0  0  0  0  0  0  0  0  0  0  0  0
   -4.8725   14.6908  -11.4485 C   0  0  0  0  0  0  0  0  0  0  0  0
   -4.9333   15.7062  -12.9400 S   0  0  0  0  0  0  0  0  0  0  0  0
   -3.5260   16.0449  -13.1228 O   0  0  0  0  0  0  0  0  0  0  0  0
   -5.4968   14.7858  -13.9229 O   0  0  0  0  0  0  0  0  0  0  0  0
   -5.8025   16.8159  -12.5600 O   0  5  0  0  0  0  0  0  0  0  0  0
   -5.3271   15.1990  -10.2322 C   0  0  0  0  0  0  0  0  0  0  0  0
   -5.2735   14.3888   -9.1026 C   0  0  0  0  0  0  0  0  0  0  0  0
   -5.7073   14.8970   -7.9382 F   0  0  0  0  0  0  0  0  0  0  0  0
   -3.6234   11.9049   -7.3679 C   0  0  0  0  0  0  0  0  0  0  0  0
   -3.3592   11.1418   -6.2362 N   0  0  0  0  0  0  0  0  0  0  0  0
   -2.0547   11.1479   -6.0965 C   0  0  0  0  0  0  0  0  0  0  0  0
   -1.2160   10.4958   -5.0317 C   0  0  0  0  0  0  0  0  0  0  0  0
    0.2659   10.6191   -5.0447 C   0  0  0  0  0  0  0  0  0  0  0  0
    0.8866   11.8420   -4.7516 C   0  0  0  0  0  0  0  0  0  0  0  0
    0.1410   12.9226   -4.4744 F   0  0  0  0  0  0  0  0  0  0  0  0
    2.2706   11.9773   -4.7603 C   0  0  0  0  0  0  0  0  0  0  0  0
    3.0585   10.8612   -5.0470 C   0  0  0  0  0  0  0  0  0  0  0  0
    4.8553   11.0413   -5.0114 S   0  0  0  0  0  0  0  0  0  0  0  0
    5.0994   11.7870   -6.2406 O   0  0  0  0  0  0  0  0  0  0  0  0
    5.0654   11.7756   -3.7674 O   0  0  0  0  0  0  0  0  0  0  0  0
    5.3307    9.6615   -5.0039 O   0  5  0  0  0  0  0  0  0  0  0  0
    2.4776    9.6242   -5.3251 C   0  0  0  0  0  0  0  0  0  0  0  0
    1.0897    9.5201   -5.3343 C   0  0  0  0  0  0  0  0  0  0  0  0
    0.5441    8.3242   -5.6054 F   0  0  0  0  0  0  0  0  0  0  0  0
   -1.8256    9.8058   -4.0482 C   0  0  0  0  0  0  0  0  0  0  0  0
   -1.1470    9.1167   -2.9557 C   0  0  0  0  0  0  0  0  0  0  0  0
   -2.0611    8.4884   -2.1994 C   0  0  0  0  0  0  0  0  0  0  0  0
   -3.3983    8.7660   -2.7303 C   0  0  0  0  0  0  0  0  0  0  0  0
   -3.1601    9.5610   -3.8233 N   0  0  0  0  0  0  0  0  0  0  0  0
   -1.3409   11.9009   -7.1368 C   0  0  0  0  0  0  0  0  0  0  0  0
   -2.3448   12.3699   -7.8656 C   0  0  0  0  0  0  0  0  0  0  0  0
   -8.0137    8.4193   -3.1285 C   0  0  0  0  0  0  0  0  0  0  0  0
   -7.0770    8.0646   -2.2609 C   0  0  0  0  0  0  0  0  0  0  0  0
   -4.9233    6.0515   -1.2057 C   0  0  0  0  0  0  0  0  0  0  0  0
   -4.8700    5.1679   -0.1336 C   0  0  0  0  0  0  0  0  0  0  0  0
    0.7535    0.0475    3.1169 H   0  0  0  0  0  0  0  0  0  0  0  0
    1.8881   -1.2601    2.8955 H   0  0  0  0  0  0  0  0  0  0  0  0
    0.2563   -1.6067    3.4402 H   0  0  0  0  0  0  0  0  0  0  0  0
    0.5481   -2.2159    1.0242 H   0  0  0  0  0  0  0  0  0  0  0  0
    0.4430   -0.0845   -0.5167 H   0  0  0  0  0  0  0  0  0  0  0  0
    3.2814   -2.4048    1.8461 H   0  0  0  0  0  0  0  0  0  0  0  0
    4.9587   -4.1007    1.5228 H   0  0  0  0  0  0  0  0  0  0  0  0
    7.5089   -4.9083   -1.9972 H   0  0  0  0  0  0  0  0  0  0  0  0
   10.2890   -1.3312   -2.7122 H   0  0  0  0  0  0  0  0  0  0  0  0
   11.9777   -1.5328   -4.4657 H   0  0  0  0  0  0  0  0  0  0  0  0
   11.8451   -3.3779   -6.1207 H   0  0  0  0  0  0  0  0  0  0  0  0
    9.9885   -5.0176   -5.9920 H   0  0  0  0  0  0  0  0  0  0  0  0
    8.2378   -4.7987   -4.2787 H   0  0  0  0  0  0  0  0  0  0  0  0
    7.7864   -0.6096   -3.9111 H   0  0  0  0  0  0  0  0  0  0  0  0
    5.9497    1.8257   -0.8487 H   0  0  0  0  0  0  0  0  0  0  0  0
    6.2411   -0.0122    0.7613 H   0  0  0  0  0  0  0  0  0  0  0  0
    4.9740   -3.2395   -2.7172 H   0  0  0  0  0  0  0  0  0  0  0  0
    3.2749   -1.5446   -2.3881 H   0  0  0  0  0  0  0  0  0  0  0  0
   -2.7146    0.2262    1.4383 H   0  0  0  0  0  0  0  0  0  0  0  0
   -1.4111    1.8232    2.7785 H   0  0  0  0  0  0  0  0  0  0  0  0
    0.0129    1.4444    1.8231 H   0  0  0  0  0  0  0  0  0  0  0  0
   -0.8683    3.5284    1.0250 H   0  0  0  0  0  0  0  0  0  0  0  0
   -1.0193    2.2972   -0.2281 H   0  0  0  0  0  0  0  0  0  0  0  0
   -2.9799    3.6445   -0.1747 H   0  0  0  0  0  0  0  0  0  0  0  0
   -3.4493    2.0202    0.3185 H   0  0  0  0  0  0  0  0  0  0  0  0
   -3.4433    2.7866    2.6797 H   0  0  0  0  0  0  0  0  0  0  0  0
   -3.5266    7.2413    2.2169 H   0  0  0  0  0  0  0  0  0  0  0  0
   -3.7687    8.8566    0.3575 H   0  0  0  0  0  0  0  0  0  0  0  0
  -12.4951   10.3966   -3.3497 H   0  0  0  0  0  0  0  0  0  0  0  0
  -12.1346    8.0548   -6.9496 H   0  0  0  0  0  0  0  0  0  0  0  0
   -9.3813   11.4171   -7.3141 H   0  0  0  0  0  0  0  0  0  0  0  0
   -7.5740   12.6258   -8.8392 H   0  0  0  0  0  0  0  0  0  0  0  0
   -5.5475   10.5385   -5.7859 H   0  0  0  0  0  0  0  0  0  0  0  0
   -4.0375   13.0014  -12.5001 H   0  0  0  0  0  0  0  0  0  0  0  0
   -5.7213   16.2078  -10.1623 H   0  0  0  0  0  0  0  0  0  0  0  0
    2.7365   12.9352   -4.5476 H   0  0  0  0  0  0  0  0  0  0  0  0
    3.0947    8.7548   -5.5314 H   0  0  0  0  0  0  0  0  0  0  0  0
   -0.0831    9.0860   -2.7840 H   0  0  0  0  0  0  0  0  0  0  0  0
   -1.8229    7.8797   -1.3437 H   0  0  0  0  0  0  0  0  0  0  0  0
   -3.8918    9.9076   -4.4388 H   0  0  0  0  0  0  0  0  0  0  0  0
   -0.2903   12.0612   -7.2792 H   0  0  0  0  0  0  0  0  0  0  0  0
   -2.1971   13.0009   -8.7281 H   0  0  0  0  0  0  0  0  0  0  0  0
   -9.0535    8.1565   -3.0131 H   0  0  0  0  0  0  0  0  0  0  0  0
   -7.1965    7.4979   -1.3590 H   0  0  0  0  0  0  0  0  0  0  0  0
   -5.2873    5.6959   -2.1687 H   0  0  0  0  0  0  0  0  0  0  0  0
   -5.2274    4.1502   -0.2638 H   0  0  0  0  0  0  0  0  0  0  0  0
  1107  1  0  0  0  0
