4_2_2522
 OpenBabel04152301363D

140150  0  0  1  0  0  0  0  0999 V2000
    0.8064    0.3747    1.0128 C   0  0  0  0  0  0  0  0  0  0  0  0
    0.4075   -0.7666    1.7552 O   0  0  0  0  0  0  0  0  0  0  0  0
    1.0306   -1.9874    1.3572 C   0  0  0  0  0  0  0  0  0  0  0  0
    0.5000   -2.5521    0.0349 C   0  0  0  0  0  0  0  0  0  0  0  0
    1.2295   -2.0354   -1.2194 C   0  0  1  0  0  0  0  0  0  0  0  0
    2.6825   -2.5005   -1.2907 C   0  0  0  0  0  0  0  0  0  0  0  0
    0.5262   -2.4734   -2.4270 N   0  0  0  0  0  0  0  0  0  0  0  0
   -0.5224   -1.9407   -3.0857 C   0  0  0  0  0  0  0  0  0  0  0  0
   -1.2651   -2.7319   -3.6727 O   0  0  0  0  0  0  0  0  0  0  0  0
   -0.7631   -0.5932   -3.1043 N   0  0  0  0  0  0  0  0  0  0  0  0
   -2.1887   -0.2596   -2.8890 C   0  0  0  0  0  0  0  0  0  0  0  0
   -2.4844    1.1641   -3.1802 C   0  0  0  0  0  0  0  0  0  0  0  0
   -3.7268    1.7403   -3.1205 N   0  0  0  0  0  0  0  0  0  0  0  0
   -3.5337    3.0043   -3.4359 C   0  0  0  0  0  0  0  0  0  0  0  0
   -2.2146    3.2717   -3.6930 N   0  0  0  0  0  0  0  0  0  0  0  0
   -1.5432    2.1008   -3.5164 C   0  0  0  0  0  0  0  0  0  0  0  0
   -0.1062    1.8330   -3.6775 C   0  0  0  0  0  0  0  0  0  0  0  0
    0.2625    0.4942   -2.9669 C   0  0  2  0  0  0  0  0  0  0  0  0
    1.6845    0.1585   -3.4538 C   0  0  0  0  0  0  0  0  0  0  0  0
    2.6603    0.4914   -2.7723 O   0  0  0  0  0  0  0  0  0  0  0  0
    1.9315   -0.3886   -4.6743 N   0  0  0  0  0  0  0  0  0  0  0  0
    1.0290   -0.6624   -5.7801 C   0  0  0  0  0  0  0  0  0  0  0  0
    1.2319    0.3179   -6.9389 C   0  0  0  0  0  0  0  0  0  0  0  0
    2.5704    0.1473   -7.6360 C   0  0  0  0  0  0  0  0  0  0  0  0
    2.6619   -1.1059   -8.3797 N   0  0  0  0  0  0  0  0  0  0  0  0
    3.7150   -1.5604   -9.1539 C   0  0  0  0  0  0  0  0  0  0  0  0
    3.5385   -2.4160  -10.0027 O   0  0  0  0  0  0  0  0  0  0  0  0
    5.0564   -0.9893   -8.9234 C   0  0  0  0  0  0  0  0  0  0  0  0
    5.9173   -0.7053   -9.9888 C   0  0  0  0  0  0  0  0  0  0  0  0
    7.1384   -0.0890   -9.7220 C   0  0  0  0  0  0  0  0  0  0  0  0
    7.4467    0.2753   -8.4042 C   0  0  0  0  0  0  0  0  0  0  0  0
    8.6281    1.0700   -8.0860 C   0  0  0  0  0  0  0  0  0  0  0  0
    8.6117    2.4281   -8.6964 C   0  0  0  0  0  0  0  0  0  0  0  0
    9.3706    2.8943   -9.6328 N   0  0  0  0  0  0  0  0  0  0  0  0
    8.9942    4.2286   -9.7830 C   0  0  0  0  0  0  0  0  0  0  0  0
    9.9199    5.1921  -10.0609 C   0  0  0  0  0  0  0  0  0  0  0  0
    9.8859    6.6136   -9.5144 C   0  0  0  0  0  0  0  0  0  0  0  0
   10.9085    7.5091   -9.9026 C   0  0  0  0  0  0  0  0  0  0  0  0
   11.7141    7.2211  -10.9375 F   0  0  0  0  0  0  0  0  0  0  0  0
   11.1976    8.6768   -9.1949 C   0  0  0  0  0  0  0  0  0  0  0  0
   10.4138    9.0205   -8.1005 C   0  0  0  0  0  0  0  0  0  0  0  0
   10.8386   10.4684   -7.1208 S   0  0  0  0  0  0  0  0  0  0  0  0
   12.0796   10.0354   -6.4901 O   0  0  0  0  0  0  0  0  0  0  0  0
   10.9637   11.4979   -8.1469 O   0  0  0  0  0  0  0  0  0  0  0  0
    9.6919   10.6160   -6.2292 O   0  5  0  0  0  0  0  0  0  0  0  0
    9.3318    8.2383   -7.7425 C   0  0  0  0  0  0  0  0  0  0  0  0
    9.0945    7.0517   -8.4278 C   0  0  0  0  0  0  0  0  0  0  0  0
    8.1009    6.3265   -7.9071 F   0  0  0  0  0  0  0  0  0  0  0  0
   11.1514    4.5891  -10.5213 C   0  0  0  0  0  0  0  0  0  0  0  0
   11.4896    3.7088  -11.5326 C   0  0  0  0  0  0  0  0  0  0  0  0
   12.4826    2.8569  -10.9639 C   0  0  0  0  0  0  0  0  0  0  0  0
   12.7628    3.3180   -9.6775 C   0  0  0  0  0  0  0  0  0  0  0  0
   12.2104    4.5705   -9.6443 N   0  0  0  0  0  0  0  0  0  0  0  0
   13.4086    2.7009   -8.5410 C   0  0  0  0  0  0  0  0  0  0  0  0
   14.2085    1.4518   -8.8063 C   0  0  0  0  0  0  0  0  0  0  0  0
   13.8560    0.1558   -8.3873 C   0  0  0  0  0  0  0  0  0  0  0  0
   12.7291   -0.0657   -7.6957 F   0  0  0  0  0  0  0  0  0  0  0  0
   14.6303   -0.9589   -8.7176 C   0  0  0  0  0  0  0  0  0  0  0  0
   15.7568   -0.7894   -9.5222 C   0  0  0  0  0  0  0  0  0  0  0  0
   16.7494   -2.2289   -9.9696 S   0  0  0  0  0  0  0  0  0  0  0  0
   17.3750   -2.5762   -8.6982 O   0  0  0  0  0  0  0  0  0  0  0  0
   15.7447   -3.1676  -10.4605 O   0  0  0  0  0  0  0  0  0  0  0  0
   17.6584   -1.7129  -10.9907 O   0  5  0  0  0  0  0  0  0  0  0  0
   16.1016    0.4702  -10.0036 C   0  0  0  0  0  0  0  0  0  0  0  0
   15.3376    1.5701   -9.6310 C   0  0  0  0  0  0  0  0  0  0  0  0
   15.6908    2.7704  -10.1204 F   0  0  0  0  0  0  0  0  0  0  0  0
   13.1982    3.0727   -7.2428 C   0  0  0  0  0  0  0  0  0  0  0  0
   13.4159    2.1805   -6.2033 N   0  0  0  0  0  0  0  0  0  0  0  0
   12.5712    2.5382   -5.2753 C   0  0  0  0  0  0  0  0  0  0  0  0
   11.7896    1.5774   -4.4513 C   0  0  0  0  0  0  0  0  0  0  0  0
   11.7932    1.6332   -2.9617 C   0  0  0  0  0  0  0  0  0  0  0  0
   12.9023    2.1408   -2.2572 C   0  0  0  0  0  0  0  0  0  0  0  0
   14.0683    2.3417   -2.8898 F   0  0  0  0  0  0  0  0  0  0  0  0
   12.8266    2.5240   -0.9121 C   0  0  0  0  0  0  0  0  0  0  0  0
   11.6183    2.3888   -0.2311 C   0  0  0  0  0  0  0  0  0  0  0  0
   11.4544    3.0653    1.4399 S   0  0  0  0  0  0  0  0  0  0  0  0
   12.2813    2.1513    2.2199 O   0  0  0  0  0  0  0  0  0  0  0  0
   11.9761    4.4182    1.2790 O   0  0  0  0  0  0  0  0  0  0  0  0
   10.0188    2.9826    1.6989 O   0  5  0  0  0  0  0  0  0  0  0  0
   10.5158    1.8311   -0.8670 C   0  0  0  0  0  0  0  0  0  0  0  0
   10.6119    1.4679   -2.2113 C   0  0  0  0  0  0  0  0  0  0  0  0
    9.4803    1.0363   -2.7873 F   0  0  0  0  0  0  0  0  0  0  0  0
   10.9170    0.9581   -5.2906 C   0  0  0  0  0  0  0  0  0  0  0  0
   10.1213   -0.2386   -5.0916 C   0  0  0  0  0  0  0  0  0  0  0  0
    9.3407   -0.4295   -6.1774 C   0  0  0  0  0  0  0  0  0  0  0  0
    9.4666    0.7192   -7.0846 C   0  0  0  0  0  0  0  0  0  0  0  0
   10.5307    1.3847   -6.5615 N   0  0  0  0  0  0  0  0  0  0  0  0
   12.0589    3.8951   -5.3924 C   0  0  0  0  0  0  0  0  0  0  0  0
   12.4177    4.1586   -6.6518 C   0  0  0  0  0  0  0  0  0  0  0  0
    7.6835    4.3307   -9.2056 C   0  0  0  0  0  0  0  0  0  0  0  0
    7.4839    3.3184   -8.3595 C   0  0  0  0  0  0  0  0  0  0  0  0
    6.5645    0.0086   -7.3621 C   0  0  0  0  0  0  0  0  0  0  0  0
    5.4384   -0.7297   -7.6099 C   0  0  0  0  0  0  0  0  0  0  0  0
    0.2905    1.2372    1.3799 H   0  0  0  0  0  0  0  0  0  0  0  0
    0.5681    0.2294   -0.0202 H   0  0  0  0  0  0  0  0  0  0  0  0
    1.8614    0.5182    1.1187 H   0  0  0  0  0  0  0  0  0  0  0  0
    0.8669   -2.7151    2.1243 H   0  0  0  0  0  0  0  0  0  0  0  0
    2.0685   -1.7731    1.2096 H   0  0  0  0  0  0  0  0  0  0  0  0
   -0.5343   -2.2910   -0.0488 H   0  0  0  0  0  0  0  0  0  0  0  0
    0.6637   -3.6090    0.0681 H   0  0  0  0  0  0  0  0  0  0  0  0
    1.2323   -0.9674   -1.1547 H   0  0  0  0  0  0  0  0  0  0  0  0
    2.7125   -3.5681   -1.3564 H   0  0  0  0  0  0  0  0  0  0  0  0
    3.2023   -2.1825   -0.4112 H   0  0  0  0  0  0  0  0  0  0  0  0
    3.1507   -2.0767   -2.1545 H   0  0  0  0  0  0  0  0  0  0  0  0
    0.8807   -3.3002   -2.8271 H   0  0  0  0  0  0  0  0  0  0  0  0
   -2.4388   -0.4611   -1.8683 H   0  0  0  0  0  0  0  0  0  0  0  0
   -2.7695   -0.8580   -3.5594 H   0  0  0  0  0  0  0  0  0  0  0  0
   -4.2860    3.7092   -3.4837 H   0  0  0  0  0  0  0  0  0  0  0  0
   -1.8288    4.1391   -3.9538 H   0  0  0  0  0  0  0  0  0  0  0  0
    0.4556    2.6330   -3.2424 H   0  0  0  0  0  0  0  0  0  0  0  0
    0.1251    1.7564   -4.7194 H   0  0  0  0  0  0  0  0  0  0  0  0
    0.2579    0.5980   -1.9020 H   0  0  0  0  0  0  0  0  0  0  0  0
    2.8702   -0.6387   -4.8339 H   0  0  0  0  0  0  0  0  0  0  0  0
    0.0205   -0.5821   -5.4316 H   0  0  0  0  0  0  0  0  0  0  0  0
    1.2353   -1.6487   -6.1401 H   0  0  0  0  0  0  0  0  0  0  0  0
    1.1721    1.3152   -6.5558 H   0  0  0  0  0  0  0  0  0  0  0  0
    0.4682    0.1200   -7.6617 H   0  0  0  0  0  0  0  0  0  0  0  0
    3.3454    0.1652   -6.8984 H   0  0  0  0  0  0  0  0  0  0  0  0
    2.6741    0.9483   -8.3378 H   0  0  0  0  0  0  0  0  0  0  0  0
    1.8789   -1.7000   -8.3235 H   0  0  0  0  0  0  0  0  0  0  0  0
    5.6526   -0.9481  -10.9563 H   0  0  0  0  0  0  0  0  0  0  0  0
    7.8075    0.0969  -10.4854 H   0  0  0  0  0  0  0  0  0  0  0  0
   11.9854    9.2787   -9.4816 H   0  0  0  0  0  0  0  0  0  0  0  0
    8.7071    8.5316   -6.9752 H   0  0  0  0  0  0  0  0  0  0  0  0
   11.1069    3.6753  -12.4904 H   0  0  0  0  0  0  0  0  0  0  0  0
   12.9176    2.0419  -11.4238 H   0  0  0  0  0  0  0  0  0  0  0  0
   12.5172    5.3244   -9.0905 H   0  0  0  0  0  0  0  0  0  0  0  0
   14.3721   -1.8959   -8.3707 H   0  0  0  0  0  0  0  0  0  0  0  0
   16.9141    0.5861  -10.6292 H   0  0  0  0  0  0  0  0  0  0  0  0
   13.6570    2.9025   -0.4303 H   0  0  0  0  0  0  0  0  0  0  0  0
    9.6342    1.6868   -0.3502 H   0  0  0  0  0  0  0  0  0  0  0  0
   10.1474   -0.8449   -4.2569 H   0  0  0  0  0  0  0  0  0  0  0  0
    8.7463   -1.2565   -6.3443 H   0  0  0  0  0  0  0  0  0  0  0  0
   10.9920    2.1100   -7.0415 H   0  0  0  0  0  0  0  0  0  0  0  0
   11.5632    4.4823   -4.7036 H   0  0  0  0  0  0  0  0  0  0  0  0
   12.1723    5.0283   -7.1502 H   0  0  0  0  0  0  0  0  0  0  0  0
    6.9992    5.0747   -9.4136 H   0  0  0  0  0  0  0  0  0  0  0  0
    6.7390    3.1917   -7.6565 H   0  0  0  0  0  0  0  0  0  0  0  0
    6.7568    0.3635   -6.4123 H   0  0  0  0  0  0  0  0  0  0  0  0
    4.8745   -1.0927   -6.8255 H   0  0  0  0  0  0  0  0  0  0  0  0
  1  2  1  0  0  0  0
  1 94  1  0  0  0  0
  1 95  1  0  0  0  0
  1 96  1  0  0  0  0
  2  3  1  0  0  0  0
  3  4  1  0  0  0  0
  3 97  1  0  0  0  0
  3 98  1  0  0  0  0
  4  5  1  0  0  0  0
  4 99  1  0  0  0  0
  4100  1  0  0  0  0
  5  6  1  0  0  0  0
  5  7  1  0  0  0  0
  5101  1  1  0  0  0
  6102  1  0  0  0  0
  6103  1  0  0  0  0
  6104  1  0  0  0  0
  7  8  1  0  0  0  0
  7105  1  0  0  0  0
  8  9  2  0  0  0  0
  8 10  1  0  0  0  0
 10 11  1  0  0  0  0
 10 18  1  0  0  0  0
 11 12  1  0  0  0  0
 11106  1  0  0  0  0
 11107  1  0  0  0  0
 12 13  1  0  0  0  0
 12 16  2  0  0  0  0
 13 14  2  0  0  0  0
 14 15  1  0  0  0  0
 14108  1  0  0  0  0
 15 16  1  0  0  0  0
 15109  1  0  0  0  0
 16 17  1  0  0  0  0
 17 18  1  0  0  0  0
 17110  1  0  0  0  0
 17111  1  0  0  0  0
 18 19  1  0  0  0  0
 18112  1  1  0  0  0
 19 20  2  0  0  0  0
 19 21  1  0  0  0  0
 21 22  1  0  0  0  0
 21113  1  0  0  0  0
 22 23  1  0  0  0  0
 22114  1  0  0  0  0
 22115  1  0  0  0  0
 23 24  1  0  0  0  0
 23116  1  0  0  0  0
 23117  1  0  0  0  0
 24 25  1  0  0  0  0
 24118  1  0  0  0  0
 24119  1  0  0  0  0
 25 26  1  0  0  0  0
 25120  1  0  0  0  0
 26 27  2  0  0  0  0
 26 28  1  0  0  0  0
 28 29  1  0  0  0  0
 28 93  2  0  0  0  0
 29 30  2  0  0  0  0
 29121  1  0  0  0  0
 30 31  1  0  0  0  0
 30122  1  0  0  0  0
 31 32  1  0  0  0  0
 31 92  2  0  0  0  0
 32 33  1  0  0  0  0
 32 86  2  0  0  0  0
 33 34  2  0  0  0  0
 33 91  1  0  0  0  0
 34 35  1  0  0  0  0
 35 36  2  0  0  0  0
 35 90  1  0  0  0  0
 36 37  1  0  0  0  0
 36 49  1  0  0  0  0
 37 38  1  0  0  0  0
 37 47  2  0  0  0  0
 38 39  1  0  0  0  0
 38 40  2  0  0  0  0
 40 41  1  0  0  0  0
 40123  1  0  0  0  0
 41 42  1  0  0  0  0
 41 46  2  0  0  0  0
 42 43  2  0  0  0  0
 42 44  2  0  0  0  0
 42 45  1  0  0  0  0
 46 47  1  0  0  0  0
 46124  1  0  0  0  0
 47 48  1  0  0  0  0
 49 50  2  0  0  0  0
 49 53  1  0  0  0  0
 50 51  1  0  0  0  0
 50125  1  0  0  0  0
 51 52  2  0  0  0  0
 51126  1  0  0  0  0
 52 53  1  0  0  0  0
 52 54  1  0  0  0  0
 53127  1  0  0  0  0
 54 55  1  0  0  0  0
 54 67  2  0  0  0  0
 55 56  1  0  0  0  0
 55 65  2  0  0  0  0
 56 57  1  0  0  0  0
 56 58  2  0  0  0  0
 58 59  1  0  0  0  0
 58128  1  0  0  0  0
 59 60  1  0  0  0  0
 59 64  2  0  0  0  0
 60 61  2  0  0  0  0
 60 62  2  0  0  0  0
 60 63  1  0  0  0  0
 64 65  1  0  0  0  0
 64129  1  0  0  0  0
 65 66  1  0  0  0  0
 67 68  1  0  0  0  0
 67 89  1  0  0  0  0
 68 69  2  0  0  0  0
 69 70  1  0  0  0  0
 69 88  1  0  0  0  0
 70 71  1  0  0  0  0
 70 83  2  0  0  0  0
 71 72  1  0  0  0  0
 71 81  2  0  0  0  0
 72 73  1  0  0  0  0
 72 74  2  0  0  0  0
 74 75  1  0  0  0  0
 74130  1  0  0  0  0
 75 76  1  0  0  0  0
 75 80  2  0  0  0  0
 76 77  2  0  0  0  0
 76 78  2  0  0  0  0
 76 79  1  0  0  0  0
 80 81  1  0  0  0  0
 80131  1  0  0  0  0
 81 82  1  0  0  0  0
 83 84  1  0  0  0  0
 83 87  1  0  0  0  0
 84 85  2  0  0  0  0
 84132  1  0  0  0  0
 85 86  1  0  0  0  0
 85133  1  0  0  0  0
 86 87  1  0  0  0  0
 87134  1  0  0  0  0
 88 89  2  0  0  0  0
 88135  1  0  0  0  0
 89136  1  0  0  0  0
 90 91  2  0  0  0  0
 90137  1  0  0  0  0
 91138  1  0  0  0  0
 92 93  1  0  0  0  0
 92139  1  0  0  0  0
 93140  1  0  0  0  0
M  CHG  3  45  -1  63  -1  79  -1
M  END
$$$$
