4_2_6699
 OpenBabel04152301373D

128138  0  0  0  0  0  0  0  0999 V2000
    1.2586   -0.0589   -0.0088 O   0  0  0  0  0  0  0  0  0  0  0  0
    2.4865   -0.0240   -0.0159 C   0  0  0  0  0  0  0  0  0  0  0  0
    3.1287    0.8241   -0.8870 N   0  0  0  0  0  0  0  0  0  0  0  0
    4.5369    0.9224   -1.2556 C   0  0  0  0  0  0  0  0  0  0  0  0
    4.7972    0.5044   -2.6969 C   0  0  0  0  0  0  0  0  0  0  0  0
    4.1342    1.4159   -3.7204 C   0  0  0  0  0  0  0  0  0  0  0  0
    4.6823    2.7654   -3.6877 N   0  0  0  0  0  0  0  0  0  0  0  0
    5.6913    3.3010   -4.4452 C   0  0  0  0  0  0  0  0  0  0  0  0
    6.1758    4.3959   -4.1794 O   0  0  0  0  0  0  0  0  0  0  0  0
    6.2041    2.5390   -5.5946 C   0  0  0  0  0  0  0  0  0  0  0  0
    5.3511    2.2194   -6.6576 C   0  0  0  0  0  0  0  0  0  0  0  0
    5.8319    1.4575   -7.7198 C   0  0  0  0  0  0  0  0  0  0  0  0
    7.1676    1.0365   -7.7172 C   0  0  0  0  0  0  0  0  0  0  0  0
    7.7403    0.0550   -9.0696 S   0  0  0  0  0  0  0  0  0  0  0  0
    7.5923   -1.3175   -8.6108 O   0  0  0  0  0  0  0  0  0  0  0  0
    6.9975    0.4774  -10.2482 O   0  0  0  0  0  0  0  0  0  0  0  0
    9.4505    0.3213   -9.3657 C   0  0  0  0  0  0  0  0  0  0  0  0
    9.7664    1.7456   -9.6871 C   0  0  0  0  0  0  0  0  0  0  0  0
    8.9623    2.7435   -9.2788 N   0  0  0  0  0  0  0  0  0  0  0  0
    9.3788    4.0050   -9.5003 C   0  0  0  0  0  0  0  0  0  0  0  0
   10.5774    4.3121  -10.0921 C   0  0  0  0  0  0  0  0  0  0  0  0
   11.3406    3.2345  -10.4648 C   0  0  0  0  0  0  0  0  0  0  0  0
   10.9636    1.9556  -10.2758 N   0  0  0  0  0  0  0  0  0  0  0  0
    8.0142    1.3856   -6.6700 C   0  0  0  0  0  0  0  0  0  0  0  0
    9.2924    0.9905   -6.6460 F   0  0  0  0  0  0  0  0  0  0  0  0
    7.5446    2.1532   -5.6095 C   0  0  0  0  0  0  0  0  0  0  0  0
    3.2589   -0.8981    0.8951 C   0  0  0  0  0  0  0  0  0  0  0  0
    4.4137   -0.4308    1.5194 C   0  0  0  0  0  0  0  0  0  0  0  0
    5.2022   -1.3028    2.2573 C   0  0  0  0  0  0  0  0  0  0  0  0
    4.7659   -2.6103    2.5310 C   0  0  0  0  0  0  0  0  0  0  0  0
    5.5914   -3.4531    3.4364 C   0  0  0  0  0  0  0  0  0  0  0  0
    6.2490   -4.7174    2.9552 C   0  0  0  0  0  0  0  0  0  0  0  0
    7.0846   -5.4972    3.5933 N   0  0  0  0  0  0  0  0  0  0  0  0
    7.3825   -6.5380    2.7217 C   0  0  0  0  0  0  0  0  0  0  0  0
    8.2243   -7.5820    2.9112 C   0  0  0  0  0  0  0  0  0  0  0  0
    8.3699   -8.5919    1.8063 C   0  0  0  0  0  0  0  0  0  0  0  0
    7.8427   -9.8856    1.9496 C   0  0  0  0  0  0  0  0  0  0  0  0
    7.1051  -10.1997    3.0262 F   0  0  0  0  0  0  0  0  0  0  0  0
    8.0870  -10.8799    1.0075 C   0  0  0  0  0  0  0  0  0  0  0  0
    8.8604  -10.5756   -0.1137 C   0  0  0  0  0  0  0  0  0  0  0  0
    9.1819  -11.8817   -1.3192 S   0  0  0  0  0  0  0  0  0  0  0  0
   10.0807  -12.7595   -0.5785 O   0  0  0  0  0  0  0  0  0  0  0  0
    7.8418  -12.4050   -1.5679 O   0  0  0  0  0  0  0  0  0  0  0  0
    9.7833  -11.1658   -2.4407 O   0  5  0  0  0  0  0  0  0  0  0  0
    9.3674   -9.2908   -0.3087 C   0  0  0  0  0  0  0  0  0  0  0  0
    9.1265   -8.3165    0.6568 C   0  0  0  0  0  0  0  0  0  0  0  0
    9.6341   -7.0891    0.4612 F   0  0  0  0  0  0  0  0  0  0  0  0
    9.0010   -7.7899    4.1082 C   0  0  0  0  0  0  0  0  0  0  0  0
    9.8956   -8.8103    4.3853 C   0  0  0  0  0  0  0  0  0  0  0  0
   10.3938   -8.6188    5.6781 C   0  0  0  0  0  0  0  0  0  0  0  0
    9.8406   -7.4577    6.1920 C   0  0  0  0  0  0  0  0  0  0  0  0
    8.9847   -6.9626    5.2212 N   0  0  0  0  0  0  0  0  0  0  0  0
   10.0773   -6.8484    7.4757 C   0  0  0  0  0  0  0  0  0  0  0  0
   11.0119   -7.5431    8.4228 C   0  0  0  0  0  0  0  0  0  0  0  0
   12.3947   -7.5525    8.1866 C   0  0  0  0  0  0  0  0  0  0  0  0
   12.9044   -6.9155    7.1206 F   0  0  0  0  0  0  0  0  0  0  0  0
   13.2699   -8.2207    9.0351 C   0  0  0  0  0  0  0  0  0  0  0  0
   12.7580   -8.8828   10.1526 C   0  0  0  0  0  0  0  0  0  0  0  0
   13.9102   -9.7065   11.2717 S   0  0  0  0  0  0  0  0  0  0  0  0
   14.2663  -10.8978   10.5090 O   0  0  0  0  0  0  0  0  0  0  0  0
   14.9656   -8.7089   11.4212 O   0  0  0  0  0  0  0  0  0  0  0  0
   13.1080   -9.9416   12.4687 O   0  5  0  0  0  0  0  0  0  0  0  0
   11.3900   -8.8824   10.4253 C   0  0  0  0  0  0  0  0  0  0  0  0
   10.5303   -8.2272    9.5500 C   0  0  0  0  0  0  0  0  0  0  0  0
    9.2160   -8.2343    9.8245 F   0  0  0  0  0  0  0  0  0  0  0  0
    9.5253   -5.6854    7.8987 C   0  0  0  0  0  0  0  0  0  0  0  0
    8.6230   -4.8585    7.2430 N   0  0  0  0  0  0  0  0  0  0  0  0
    8.3573   -3.8864    8.0819 C   0  0  0  0  0  0  0  0  0  0  0  0
    7.4352   -2.7172    7.9024 C   0  0  0  0  0  0  0  0  0  0  0  0
    7.3132   -1.6649    8.9447 C   0  0  0  0  0  0  0  0  0  0  0  0
    6.1284   -1.5067    9.6799 C   0  0  0  0  0  0  0  0  0  0  0  0
    5.0847   -2.3210    9.4592 F   0  0  0  0  0  0  0  0  0  0  0  0
    5.9844   -0.4938   10.6197 C   0  0  0  0  0  0  0  0  0  0  0  0
    7.0555    0.3694   10.8530 C   0  0  0  0  0  0  0  0  0  0  0  0
    6.8552    1.6714   12.0873 S   0  0  0  0  0  0  0  0  0  0  0  0
    6.0059    2.6190   11.3732 O   0  0  0  0  0  0  0  0  0  0  0  0
    6.2215    0.9565   13.1905 O   0  0  0  0  0  0  0  0  0  0  0  0
    8.2239    2.1129   12.3341 O   0  5  0  0  0  0  0  0  0  0  0  0
    8.2597    0.2247   10.1640 C   0  0  0  0  0  0  0  0  0  0  0  0
    8.3694   -0.7800    9.2069 C   0  0  0  0  0  0  0  0  0  0  0  0
    9.5255   -0.8988    8.5361 F   0  0  0  0  0  0  0  0  0  0  0  0
    6.7077   -2.6308    6.7730 C   0  0  0  0  0  0  0  0  0  0  0  0
    5.7692   -1.5589    6.4651 C   0  0  0  0  0  0  0  0  0  0  0  0
    5.2175   -1.7961    5.2673 C   0  0  0  0  0  0  0  0  0  0  0  0
    5.8189   -3.0024    4.6880 C   0  0  0  0  0  0  0  0  0  0  0  0
    6.6496   -3.4613    5.6773 N   0  0  0  0  0  0  0  0  0  0  0  0
    9.0649   -3.9817    9.3648 C   0  0  0  0  0  0  0  0  0  0  0  0
    9.7866   -5.0801    9.1892 C   0  0  0  0  0  0  0  0  0  0  0  0
    6.6193   -6.3062    1.5146 C   0  0  0  0  0  0  0  0  0  0  0  0
    5.9304   -5.1739    1.5929 C   0  0  0  0  0  0  0  0  0  0  0  0
    3.5414   -3.0390    2.0007 C   0  0  0  0  0  0  0  0  0  0  0  0
    2.8036   -2.1949    1.1609 C   0  0  0  0  0  0  0  0  0  0  0  0
    2.5405    1.4729   -1.3368 H   0  0  0  0  0  0  0  0  0  0  0  0
    5.1056    0.2889   -0.6073 H   0  0  0  0  0  0  0  0  0  0  0  0
    4.8256    1.9482   -1.1592 H   0  0  0  0  0  0  0  0  0  0  0  0
    4.4234   -0.4887   -2.8347 H   0  0  0  0  0  0  0  0  0  0  0  0
    5.8534    0.5651   -2.8574 H   0  0  0  0  0  0  0  0  0  0  0  0
    3.0858    1.4640   -3.5119 H   0  0  0  0  0  0  0  0  0  0  0  0
    4.3180    1.0087   -4.6927 H   0  0  0  0  0  0  0  0  0  0  0  0
    4.2723    3.3754   -3.0326 H   0  0  0  0  0  0  0  0  0  0  0  0
    4.3722    2.5462   -6.6542 H   0  0  0  0  0  0  0  0  0  0  0  0
    5.2087    1.2051   -8.5027 H   0  0  0  0  0  0  0  0  0  0  0  0
    9.7544   -0.2907  -10.1891 H   0  0  0  0  0  0  0  0  0  0  0  0
    9.9764    0.0687   -8.4687 H   0  0  0  0  0  0  0  0  0  0  0  0
    8.7639    4.7811   -9.2095 H   0  0  0  0  0  0  0  0  0  0  0  0
   10.8837    5.2854  -10.2463 H   0  0  0  0  0  0  0  0  0  0  0  0
   12.2523    3.4137  -10.9140 H   0  0  0  0  0  0  0  0  0  0  0  0
    8.1785    2.4332   -4.8448 H   0  0  0  0  0  0  0  0  0  0  0  0
    4.6822    0.5619    1.4333 H   0  0  0  0  0  0  0  0  0  0  0  0
    6.1196   -0.9872    2.6091 H   0  0  0  0  0  0  0  0  0  0  0  0
    7.7019  -11.8287    1.1359 H   0  0  0  0  0  0  0  0  0  0  0  0
    9.9127   -9.0657   -1.1555 H   0  0  0  0  0  0  0  0  0  0  0  0
   10.1509   -9.5801    3.7471 H   0  0  0  0  0  0  0  0  0  0  0  0
   11.0603   -9.2374    6.1661 H   0  0  0  0  0  0  0  0  0  0  0  0
    8.4446   -6.1441    5.3087 H   0  0  0  0  0  0  0  0  0  0  0  0
   14.2836   -8.2273    8.8417 H   0  0  0  0  0  0  0  0  0  0  0  0
   11.0219   -9.3603   11.2626 H   0  0  0  0  0  0  0  0  0  0  0  0
    5.0987   -0.3815   11.1374 H   0  0  0  0  0  0  0  0  0  0  0  0
    9.0555    0.8517   10.3605 H   0  0  0  0  0  0  0  0  0  0  0  0
    5.5632   -0.7492    7.0709 H   0  0  0  0  0  0  0  0  0  0  0  0
    4.4851   -1.2210    4.8224 H   0  0  0  0  0  0  0  0  0  0  0  0
    7.1555   -4.3032    5.6104 H   0  0  0  0  0  0  0  0  0  0  0  0
    9.0140   -3.3587   10.1859 H   0  0  0  0  0  0  0  0  0  0  0  0
   10.4506   -5.4564    9.8839 H   0  0  0  0  0  0  0  0  0  0  0  0
    6.6114   -6.9385    0.6991 H   0  0  0  0  0  0  0  0  0  0  0  0
    5.3279   -4.7293    0.8827 H   0  0  0  0  0  0  0  0  0  0  0  0
    3.1824   -3.9791    2.2296 H   0  0  0  0  0  0  0  0  0  0  0  0
    1.9237   -2.5293    0.7378 H   0  0  0  0  0  0  0  0  0  0  0  0
  1  2  2  0  0  0  0
  2  3  1  0  0  0  0
  2 27  1  0  0  0  0
  3  4  1  0  0  0  0
  3 93  1  0  0  0  0
  4  5  1  0  0  0  0
  4 94  1  0  0  0  0
  4 95  1  0  0  0  0
  5  6  1  0  0  0  0
  5 96  1  0  0  0  0
  5 97  1  0  0  0  0
  6  7  1  0  0  0  0
  6 98  1  0  0  0  0
  6 99  1  0  0  0  0
  7  8  1  0  0  0  0
  7100  1  0  0  0  0
  8  9  2  0  0  0  0
  8 10  1  0  0  0  0
 10 11  1  0  0  0  0
 10 26  2  0  0  0  0
 11 12  2  0  0  0  0
 11101  1  0  0  0  0
 12 13  1  0  0  0  0
 12102  1  0  0  0  0
 13 14  1  0  0  0  0
 13 24  2  0  0  0  0
 14 15  2  0  0  0  0
 14 16  2  0  0  0  0
 14 17  1  0  0  0  0
 17 18  1  0  0  0  0
 17103  1  0  0  0  0
 17104  1  0  0  0  0
 18 19  1  0  0  0  0
 18 23  2  0  0  0  0
 19 20  2  0  0  0  0
 20 21  1  0  0  0  0
 20105  1  0  0  0  0
 21 22  2  0  0  0  0
 21106  1  0  0  0  0
 22 23  1  0  0  0  0
 22107  1  0  0  0  0
 24 25  1  0  0  0  0
 24 26  1  0  0  0  0
 26108  1  0  0  0  0
 27 28  1  0  0  0  0
 27 92  2  0  0  0  0
 28 29  2  0  0  0  0
 28109  1  0  0  0  0
 29 30  1  0  0  0  0
 29110  1  0  0  0  0
 30 31  1  0  0  0  0
 30 91  2  0  0  0  0
 31 32  1  0  0  0  0
 31 85  2  0  0  0  0
 32 33  2  0  0  0  0
 32 90  1  0  0  0  0
 33 34  1  0  0  0  0
 34 35  2  0  0  0  0
 34 89  1  0  0  0  0
 35 36  1  0  0  0  0
 35 48  1  0  0  0  0
 36 37  1  0  0  0  0
 36 46  2  0  0  0  0
 37 38  1  0  0  0  0
 37 39  2  0  0  0  0
 39 40  1  0  0  0  0
 39111  1  0  0  0  0
 40 41  1  0  0  0  0
 40 45  2  0  0  0  0
 41 42  2  0  0  0  0
 41 43  2  0  0  0  0
 41 44  1  0  0  0  0
 45 46  1  0  0  0  0
 45112  1  0  0  0  0
 46 47  1  0  0  0  0
 48 49  2  0  0  0  0
 48 52  1  0  0  0  0
 49 50  1  0  0  0  0
 49113  1  0  0  0  0
 50 51  2  0  0  0  0
 50114  1  0  0  0  0
 51 52  1  0  0  0  0
 51 53  1  0  0  0  0
 52115  1  0  0  0  0
 53 54  1  0  0  0  0
 53 66  2  0  0  0  0
 54 55  1  0  0  0  0
 54 64  2  0  0  0  0
 55 56  1  0  0  0  0
 55 57  2  0  0  0  0
 57 58  1  0  0  0  0
 57116  1  0  0  0  0
 58 59  1  0  0  0  0
 58 63  2  0  0  0  0
 59 60  2  0  0  0  0
 59 61  2  0  0  0  0
 59 62  1  0  0  0  0
 63 64  1  0  0  0  0
 63117  1  0  0  0  0
 64 65  1  0  0  0  0
 66 67  1  0  0  0  0
 66 88  1  0  0  0  0
 67 68  2  0  0  0  0
 68 69  1  0  0  0  0
 68 87  1  0  0  0  0
 69 70  1  0  0  0  0
 69 82  2  0  0  0  0
 70 71  1  0  0  0  0
 70 80  2  0  0  0  0
 71 72  1  0  0  0  0
 71 73  2  0  0  0  0
 73 74  1  0  0  0  0
 73118  1  0  0  0  0
 74 75  1  0  0  0  0
 74 79  2  0  0  0  0
 75 76  2  0  0  0  0
 75 77  2  0  0  0  0
 75 78  1  0  0  0  0
 79 80  1  0  0  0  0
 79119  1  0  0  0  0
 80 81  1  0  0  0  0
 82 83  1  0  0  0  0
 82 86  1  0  0  0  0
 83 84  2  0  0  0  0
 83120  1  0  0  0  0
 84 85  1  0  0  0  0
 84121  1  0  0  0  0
 85 86  1  0  0  0  0
 86122  1  0  0  0  0
 87 88  2  0  0  0  0
 87123  1  0  0  0  0
 88124  1  0  0  0  0
 89 90  2  0  0  0  0
 89125  1  0  0  0  0
 90126  1  0  0  0  0
 91 92  1  0  0  0  0
 91127  1  0  0  0  0
 92128  1  0  0  0  0
M  CHG  3  44  -1  62  -1  78  -1
M  END
$$$$
