4_2_4826
 OpenBabel04152301363D

136147  0  0  0  0  0  0  0  0999 V2000
    1.3090   -0.1077   -0.1728 O   0  0  0  0  0  0  0  0  0  0  0  0
    2.5313   -0.0890   -0.0573 C   0  0  0  0  0  0  0  0  0  0  0  0
    3.2718    0.8512   -0.7410 N   0  0  0  0  0  0  0  0  0  0  0  0
    4.7185    1.0158   -0.8506 C   0  0  0  0  0  0  0  0  0  0  0  0
    5.2621    0.7611   -2.2454 C   0  0  0  0  0  0  0  0  0  0  0  0
    4.8590    1.8148   -3.2549 C   0  0  0  0  0  0  0  0  0  0  0  0
    5.3340    3.1477   -2.9121 N   0  0  0  0  0  0  0  0  0  0  0  0
    5.9985    4.0648   -3.6860 C   0  0  0  0  0  0  0  0  0  0  0  0
    6.3902    5.1154   -3.1873 O   0  0  0  0  0  0  0  0  0  0  0  0
    6.2770    3.7857   -5.1120 C   0  0  0  0  0  0  0  0  0  0  0  0
    7.6278    3.7773   -5.4847 C   0  0  0  0  0  0  0  0  0  0  0  0
    7.9868    3.4482   -6.7892 C   0  0  0  0  0  0  0  0  0  0  0  0
    6.9988    3.1436   -7.7246 C   0  0  0  0  0  0  0  0  0  0  0  0
    5.6476    3.1835   -7.3658 C   0  0  0  0  0  0  0  0  0  0  0  0
    5.2677    3.5236   -6.0616 C   0  0  0  0  0  0  0  0  0  0  0  0
    3.8491    3.4203   -5.6977 C   0  0  0  0  0  0  0  0  0  0  0  0
    3.0527    4.3723   -5.1972 C   0  0  0  0  0  0  0  0  0  0  0  0
    3.2827    6.0613   -5.1015 S   0  0  0  0  0  0  0  0  0  0  0  0
    1.7165    6.3147   -4.3216 C   0  0  0  0  0  0  0  0  0  0  0  0
    1.1531    7.8425   -3.9557 S   0  0  0  0  0  0  0  0  0  0  0  0
    1.1037    5.1006   -4.0929 N   0  0  0  0  0  0  0  0  0  0  0  0
   -0.1602    4.9043   -3.3815 C   0  0  0  0  0  0  0  0  0  0  0  0
   -1.2909    4.5302   -4.3166 C   0  0  0  0  0  0  0  0  0  0  0  0
   -2.1321    5.5089   -4.8605 C   0  0  0  0  0  0  0  0  0  0  0  0
   -3.1461    5.1513   -5.7529 C   0  0  0  0  0  0  0  0  0  0  0  0
   -3.3209    3.8179   -6.1219 C   0  0  0  0  0  0  0  0  0  0  0  0
   -2.4944    2.8360   -5.5859 C   0  0  0  0  0  0  0  0  0  0  0  0
   -1.4949    3.1891   -4.6809 C   0  0  0  0  0  0  0  0  0  0  0  0
    1.8008    3.9854   -4.5056 C   0  0  0  0  0  0  0  0  0  0  0  0
    1.5141    2.8148   -4.2660 O   0  0  0  0  0  0  0  0  0  0  0  0
    3.2135   -1.1016    0.7784 C   0  0  0  0  0  0  0  0  0  0  0  0
    4.2863   -0.7387    1.5867 C   0  0  0  0  0  0  0  0  0  0  0  0
    5.0923   -1.7225    2.1359 C   0  0  0  0  0  0  0  0  0  0  0  0
    4.7148   -3.0752    2.0838 C   0  0  0  0  0  0  0  0  0  0  0  0
    5.5577   -4.0655    2.8067 C   0  0  0  0  0  0  0  0  0  0  0  0
    6.2436   -5.1997    2.0925 C   0  0  0  0  0  0  0  0  0  0  0  0
    7.0725   -6.0897    2.5783 N   0  0  0  0  0  0  0  0  0  0  0  0
    7.3951   -6.9350    1.5226 C   0  0  0  0  0  0  0  0  0  0  0  0
    8.2369   -7.9975    1.5163 C   0  0  0  0  0  0  0  0  0  0  0  0
    8.3974   -8.7639    0.2307 C   0  0  0  0  0  0  0  0  0  0  0  0
    9.1375   -8.2496   -0.8452 C   0  0  0  0  0  0  0  0  0  0  0  0
    9.6537   -7.0120   -0.7800 F   0  0  0  0  0  0  0  0  0  0  0  0
    9.3377   -8.9858   -2.0096 C   0  0  0  0  0  0  0  0  0  0  0  0
    8.8031  -10.2724   -2.1010 C   0  0  0  0  0  0  0  0  0  0  0  0
    9.0957  -11.2245   -3.6078 S   0  0  0  0  0  0  0  0  0  0  0  0
    8.2095  -10.5524   -4.5531 O   0  0  0  0  0  0  0  0  0  0  0  0
   10.5245  -11.0272   -3.8302 O   0  0  0  0  0  0  0  0  0  0  0  0
    8.7038  -12.5803   -3.2356 O   0  5  0  0  0  0  0  0  0  0  0  0
    8.0719  -10.8209   -1.0484 C   0  0  0  0  0  0  0  0  0  0  0  0
    7.8667  -10.0581    0.0987 C   0  0  0  0  0  0  0  0  0  0  0  0
    7.1499  -10.5989    1.0965 F   0  0  0  0  0  0  0  0  0  0  0  0
    8.9865   -8.4435    2.6652 C   0  0  0  0  0  0  0  0  0  0  0  0
    9.8668   -9.5085    2.7602 C   0  0  0  0  0  0  0  0  0  0  0  0
   10.3437   -9.5702    4.0747 C   0  0  0  0  0  0  0  0  0  0  0  0
    9.7914   -8.5204    4.7897 C   0  0  0  0  0  0  0  0  0  0  0  0
    8.9537   -7.8442    3.9165 N   0  0  0  0  0  0  0  0  0  0  0  0
   10.0172   -8.1595    6.1659 C   0  0  0  0  0  0  0  0  0  0  0  0
   10.9605   -8.9992    6.9773 C   0  0  0  0  0  0  0  0  0  0  0  0
   10.4899   -9.8666    7.9760 C   0  0  0  0  0  0  0  0  0  0  0  0
    9.1740   -9.9592    8.2254 F   0  0  0  0  0  0  0  0  0  0  0  0
   11.3639  -10.6093    8.7613 C   0  0  0  0  0  0  0  0  0  0  0  0
   12.7366  -10.5051    8.5297 C   0  0  0  0  0  0  0  0  0  0  0  0
   13.8652  -11.4664    9.5591 S   0  0  0  0  0  0  0  0  0  0  0  0
   13.8809  -10.6801   10.7881 O   0  0  0  0  0  0  0  0  0  0  0  0
   13.1931  -12.7595    9.6420 O   0  0  0  0  0  0  0  0  0  0  0  0
   15.1078  -11.4615    8.7930 O   0  5  0  0  0  0  0  0  0  0  0  0
   13.2361   -9.6842    7.5184 C   0  0  0  0  0  0  0  0  0  0  0  0
   12.3450   -8.9314    6.7612 C   0  0  0  0  0  0  0  0  0  0  0  0
   12.8431   -8.1235    5.8119 F   0  0  0  0  0  0  0  0  0  0  0  0
    9.4524   -7.1018    6.7981 C   0  0  0  0  0  0  0  0  0  0  0  0
    8.5400   -6.1770    6.3092 N   0  0  0  0  0  0  0  0  0  0  0  0
    8.2573   -5.3894    7.3191 C   0  0  0  0  0  0  0  0  0  0  0  0
    7.3154   -4.2246    7.3646 C   0  0  0  0  0  0  0  0  0  0  0  0
    7.1088   -3.4429    8.6111 C   0  0  0  0  0  0  0  0  0  0  0  0
    8.1138   -2.6143    9.1289 C   0  0  0  0  0  0  0  0  0  0  0  0
    9.3017   -2.5328    8.5101 F   0  0  0  0  0  0  0  0  0  0  0  0
    7.9196   -1.8768   10.2924 C   0  0  0  0  0  0  0  0  0  0  0  0
    6.6853   -1.9486   10.9417 C   0  0  0  0  0  0  0  0  0  0  0  0
    6.4181   -0.9583   12.4273 S   0  0  0  0  0  0  0  0  0  0  0  0
    7.0934   -1.7631   13.4383 O   0  0  0  0  0  0  0  0  0  0  0  0
    7.0622    0.3046   12.0801 O   0  0  0  0  0  0  0  0  0  0  0  0
    4.9629   -0.9013   12.5305 O   0  5  0  0  0  0  0  0  0  0  0  0
    5.6551   -2.7430   10.4419 C   0  0  0  0  0  0  0  0  0  0  0  0
    5.8838   -3.4938    9.2957 C   0  0  0  0  0  0  0  0  0  0  0  0
    4.8820   -4.2544    8.8269 F   0  0  0  0  0  0  0  0  0  0  0  0
    6.6252   -3.9074    6.2544 C   0  0  0  0  0  0  0  0  0  0  0  0
    5.6722   -2.8105    6.1551 C   0  0  0  0  0  0  0  0  0  0  0  0
    5.1360   -2.8152    4.9283 C   0  0  0  0  0  0  0  0  0  0  0  0
    5.7721   -3.8655    4.1240 C   0  0  0  0  0  0  0  0  0  0  0  0
    6.6115   -4.4900    5.0085 N   0  0  0  0  0  0  0  0  0  0  0  0
    8.9655   -5.7161    8.5619 C   0  0  0  0  0  0  0  0  0  0  0  0
    9.7061   -6.7472    8.1807 C   0  0  0  0  0  0  0  0  0  0  0  0
    6.6543   -6.4662    0.3710 C   0  0  0  0  0  0  0  0  0  0  0  0
    5.9613   -5.3711    0.6588 C   0  0  0  0  0  0  0  0  0  0  0  0
    3.5329   -3.4181    1.4125 C   0  0  0  0  0  0  0  0  0  0  0  0
    2.8035   -2.4379    0.7270 C   0  0  0  0  0  0  0  0  0  0  0  0
    2.7408    1.5178   -1.2339 H   0  0  0  0  0  0  0  0  0  0  0  0
    5.1877    0.3308   -0.1757 H   0  0  0  0  0  0  0  0  0  0  0  0
    4.9340    2.0370   -0.6146 H   0  0  0  0  0  0  0  0  0  0  0  0
    4.8981   -0.1870   -2.5824 H   0  0  0  0  0  0  0  0  0  0  0  0
    6.3295    0.7858   -2.1754 H   0  0  0  0  0  0  0  0  0  0  0  0
    3.7909    1.8389   -3.3135 H   0  0  0  0  0  0  0  0  0  0  0  0
    5.3064    1.5480   -4.1895 H   0  0  0  0  0  0  0  0  0  0  0  0
    5.1512    3.4331   -1.9878 H   0  0  0  0  0  0  0  0  0  0  0  0
    8.3559    4.0148   -4.7930 H   0  0  0  0  0  0  0  0  0  0  0  0
    8.9817    3.4298   -7.0630 H   0  0  0  0  0  0  0  0  0  0  0  0
    7.2662    2.8871   -8.6878 H   0  0  0  0  0  0  0  0  0  0  0  0
    4.9248    2.9605   -8.0678 H   0  0  0  0  0  0  0  0  0  0  0  0
    3.4111    2.4978   -5.8465 H   0  0  0  0  0  0  0  0  0  0  0  0
   -0.4164    5.8125   -2.8771 H   0  0  0  0  0  0  0  0  0  0  0  0
   -0.0261    4.0991   -2.6897 H   0  0  0  0  0  0  0  0  0  0  0  0
   -2.0024    6.4993   -4.6009 H   0  0  0  0  0  0  0  0  0  0  0  0
   -3.7686    5.8774   -6.1407 H   0  0  0  0  0  0  0  0  0  0  0  0
   -4.0624    3.5600   -6.7917 H   0  0  0  0  0  0  0  0  0  0  0  0
   -2.6209    1.8485   -5.8576 H   0  0  0  0  0  0  0  0  0  0  0  0
   -0.8960    2.4545   -4.2725 H   0  0  0  0  0  0  0  0  0  0  0  0
    4.4804    0.2571    1.7759 H   0  0  0  0  0  0  0  0  0  0  0  0
    5.9812   -1.4587    2.5890 H   0  0  0  0  0  0  0  0  0  0  0  0
    9.8743   -8.5858   -2.7951 H   0  0  0  0  0  0  0  0  0  0  0  0
    7.6889  -11.7767   -1.1180 H   0  0  0  0  0  0  0  0  0  0  0  0
   10.1268  -10.1476    1.9927 H   0  0  0  0  0  0  0  0  0  0  0  0
   10.9959  -10.2776    4.4477 H   0  0  0  0  0  0  0  0  0  0  0  0
    8.4144   -7.0543    4.1499 H   0  0  0  0  0  0  0  0  0  0  0  0
   11.0035  -11.2283    9.5042 H   0  0  0  0  0  0  0  0  0  0  0  0
   14.2506   -9.6363    7.3351 H   0  0  0  0  0  0  0  0  0  0  0  0
    8.6764   -1.2855   10.6701 H   0  0  0  0  0  0  0  0  0  0  0  0
    4.7384   -2.7730   10.9150 H   0  0  0  0  0  0  0  0  0  0  0  0
    5.4473   -2.1400    6.9067 H   0  0  0  0  0  0  0  0  0  0  0  0
    4.3921   -2.1799    4.5996 H   0  0  0  0  0  0  0  0  0  0  0  0
    7.1522   -5.2789    4.7751 H   0  0  0  0  0  0  0  0  0  0  0  0
    8.9035   -5.2633    9.4872 H   0  0  0  0  0  0  0  0  0  0  0  0
   10.3790   -7.2362    8.7915 H   0  0  0  0  0  0  0  0  0  0  0  0
    6.6636   -6.9239   -0.5539 H   0  0  0  0  0  0  0  0  0  0  0  0
    5.3762   -4.7905    0.0378 H   0  0  0  0  0  0  0  0  0  0  0  0
    3.1994   -4.3947    1.4233 H   0  0  0  0  0  0  0  0  0  0  0  0
    1.9655   -2.7012    0.1853 H   0  0  0  0  0  0  0  0  0  0  0  0
  1  2  2  0  0  0  0
  2  3  1  0  0  0  0
  2 31  1  0  0  0  0
  3  4  1  0  0  0  0
  3 97  1  0  0  0  0
  4  5  1  0  0  0  0
  4 98  1  0  0  0  0
  4 99  1  0  0  0  0
  5  6  1  0  0  0  0
  5100  1  0  0  0  0
  5101  1  0  0  0  0
  6  7  1  0  0  0  0
  6102  1  0  0  0  0
  6103  1  0  0  0  0
  7  8  1  0  0  0  0
  7104  1  0  0  0  0
  8  9  2  0  0  0  0
  8 10  1  0  0  0  0
 10 11  1  0  0  0  0
 10 15  2  0  0  0  0
 11 12  2  0  0  0  0
 11105  1  0  0  0  0
 12 13  1  0  0  0  0
 12106  1  0  0  0  0
 13 14  2  0  0  0  0
 13107  1  0  0  0  0
 14 15  1  0  0  0  0
 14108  1  0  0  0  0
 15 16  1  0  0  0  0
 16 17  2  0  0  0  0
 16109  1  0  0  0  0
 17 18  1  0  0  0  0
 17 29  1  0  0  0  0
 18 19  1  0  0  0  0
 19 20  2  0  0  0  0
 19 21  1  0  0  0  0
 21 22  1  0  0  0  0
 21 29  1  0  0  0  0
 22 23  1  0  0  0  0
 22110  1  0  0  0  0
 22111  1  0  0  0  0
 23 24  1  0  0  0  0
 23 28  2  0  0  0  0
 24 25  2  0  0  0  0
 24112  1  0  0  0  0
 25 26  1  0  0  0  0
 25113  1  0  0  0  0
 26 27  2  0  0  0  0
 26114  1  0  0  0  0
 27 28  1  0  0  0  0
 27115  1  0  0  0  0
 28116  1  0  0  0  0
 29 30  2  0  0  0  0
 31 32  1  0  0  0  0
 31 96  2  0  0  0  0
 32 33  2  0  0  0  0
 32117  1  0  0  0  0
 33 34  1  0  0  0  0
 33118  1  0  0  0  0
 34 35  1  0  0  0  0
 34 95  2  0  0  0  0
 35 36  1  0  0  0  0
 35 89  2  0  0  0  0
 36 37  2  0  0  0  0
 36 94  1  0  0  0  0
 37 38  1  0  0  0  0
 38 39  2  0  0  0  0
 38 93  1  0  0  0  0
 39 40  1  0  0  0  0
 39 52  1  0  0  0  0
 40 41  1  0  0  0  0
 40 50  2  0  0  0  0
 41 42  1  0  0  0  0
 41 43  2  0  0  0  0
 43 44  1  0  0  0  0
 43119  1  0  0  0  0
 44 45  1  0  0  0  0
 44 49  2  0  0  0  0
 45 46  2  0  0  0  0
 45 47  2  0  0  0  0
 45 48  1  0  0  0  0
 49 50  1  0  0  0  0
 49120  1  0  0  0  0
 50 51  1  0  0  0  0
 52 53  2  0  0  0  0
 52 56  1  0  0  0  0
 53 54  1  0  0  0  0
 53121  1  0  0  0  0
 54 55  2  0  0  0  0
 54122  1  0  0  0  0
 55 56  1  0  0  0  0
 55 57  1  0  0  0  0
 56123  1  0  0  0  0
 57 58  1  0  0  0  0
 57 70  2  0  0  0  0
 58 59  1  0  0  0  0
 58 68  2  0  0  0  0
 59 60  1  0  0  0  0
 59 61  2  0  0  0  0
 61 62  1  0  0  0  0
 61124  1  0  0  0  0
 62 63  1  0  0  0  0
 62 67  2  0  0  0  0
 63 64  2  0  0  0  0
 63 65  2  0  0  0  0
 63 66  1  0  0  0  0
 67 68  1  0  0  0  0
 67125  1  0  0  0  0
 68 69  1  0  0  0  0
 70 71  1  0  0  0  0
 70 92  1  0  0  0  0
 71 72  2  0  0  0  0
 72 73  1  0  0  0  0
 72 91  1  0  0  0  0
 73 74  1  0  0  0  0
 73 86  2  0  0  0  0
 74 75  1  0  0  0  0
 74 84  2  0  0  0  0
 75 76  1  0  0  0  0
 75 77  2  0  0  0  0
 77 78  1  0  0  0  0
 77126  1  0  0  0  0
 78 79  1  0  0  0  0
 78 83  2  0  0  0  0
 79 80  2  0  0  0  0
 79 81  2  0  0  0  0
 79 82  1  0  0  0  0
 83 84  1  0  0  0  0
 83127  1  0  0  0  0
 84 85  1  0  0  0  0
 86 87  1  0  0  0  0
 86 90  1  0  0  0  0
 87 88  2  0  0  0  0
 87128  1  0  0  0  0
 88 89  1  0  0  0  0
 88129  1  0  0  0  0
 89 90  1  0  0  0  0
 90130  1  0  0  0  0
 91 92  2  0  0  0  0
 91131  1  0  0  0  0
 92132  1  0  0  0  0
 93 94  2  0  0  0  0
 93133  1  0  0  0  0
 94134  1  0  0  0  0
 95 96  1  0  0  0  0
 95135  1  0  0  0  0
 96136  1  0  0  0  0
M  CHG  3  48  -1  66  -1  82  -1
M  END
$$$$
