4_2_5568
 OpenBabel04152301363D

144155  0  0  1  0  0  0  0  0999 V2000
    0.8963   -0.0564    0.3013 O   0  0  0  0  0  0  0  0  0  0  0  0
    2.0979   -0.0375    0.0633 C   0  0  0  0  0  0  0  0  0  0  0  0
    2.9956    1.0672    0.5747 C   0  0  0  0  0  0  0  0  0  0  0  0
    3.7652    0.7567    1.8664 C   0  0  1  0  0  0  0  0  0  0  0  0
    4.0028   -1.0186    2.2635 S   0  0  0  0  0  0  0  0  0  0  0  0
    5.5524   -1.0395    1.4860 C   0  0  0  0  0  0  0  0  0  0  0  0
    6.2241   -2.0339    1.0228 N   0  3  0  0  0  0  0  0  0  0  0  0
    5.5992   -3.2806    1.1128 N   0  0  0  0  0  0  0  0  0  0  0  0
    6.5065   -4.2146    1.1020 C   0  0  0  0  0  0  0  0  0  0  0  0
    6.2120   -5.6608    1.1300 C   0  0  0  0  0  0  0  0  0  0  0  0
    4.8818   -6.0228    0.8302 C   0  0  0  0  0  0  0  0  0  0  0  0
    4.5120   -7.3617    0.7187 C   0  0  0  0  0  0  0  0  0  0  0  0
    2.7553   -7.8164    0.1905 Br  0  0  0  0  0  0  0  0  0  0  0  0
    5.4370   -8.3641    0.9621 C   0  0  0  0  0  0  0  0  0  0  0  0
    6.7428   -8.0132    1.2976 C   0  0  0  0  0  0  0  0  0  0  0  0
    7.1641   -6.6693    1.3591 C   0  0  0  0  0  0  0  0  0  0  0  0
    8.5041   -6.6298    1.6086 O   0  0  0  0  0  0  0  0  0  0  0  0
    9.3459   -5.4943    1.4633 C   0  0  0  0  0  0  0  0  0  0  0  0
    9.6268   -5.0133    0.0518 C   0  0  0  0  0  0  0  0  0  0  0  0
    8.9610   -5.5029   -1.0808 C   0  0  0  0  0  0  0  0  0  0  0  0
    9.2119   -4.9727   -2.3482 C   0  0  0  0  0  0  0  0  0  0  0  0
   10.1541   -3.9629   -2.5095 C   0  0  0  0  0  0  0  0  0  0  0  0
   10.8465   -3.4816   -1.4019 C   0  0  0  0  0  0  0  0  0  0  0  0
   10.5813   -3.9976   -0.1307 C   0  0  0  0  0  0  0  0  0  0  0  0
    6.0356    0.2184    1.3761 N   0  0  0  0  0  0  0  0  0  0  0  0
    5.1925    1.2487    1.6771 C   0  0  0  0  0  0  0  0  0  0  0  0
    5.5340    2.4229    1.6836 O   0  0  0  0  0  0  0  0  0  0  0  0
    2.7673   -0.9963   -0.6661 N   0  0  0  0  0  0  0  0  0  0  0  0
    2.1401   -2.2160   -1.1353 C   0  0  0  0  0  0  0  0  0  0  0  0
    2.4454   -2.4945   -2.6018 C   0  0  0  0  0  0  0  0  0  0  0  0
    3.9291   -2.6160   -2.9460 C   0  0  0  0  0  0  0  0  0  0  0  0
    4.5899   -3.7417   -2.3023 N   0  0  0  0  0  0  0  0  0  0  0  0
    5.2838   -4.7854   -2.8702 C   0  0  0  0  0  0  0  0  0  0  0  0
    5.6423   -5.7401   -2.1868 O   0  0  0  0  0  0  0  0  0  0  0  0
    5.6074   -4.7746   -4.3129 C   0  0  0  0  0  0  0  0  0  0  0  0
    5.4254   -5.9439   -5.0579 C   0  0  0  0  0  0  0  0  0  0  0  0
    5.7006   -5.9448   -6.4280 C   0  0  0  0  0  0  0  0  0  0  0  0
    6.1265   -4.7690   -7.0659 C   0  0  0  0  0  0  0  0  0  0  0  0
    6.3368   -4.7133   -8.5355 C   0  0  0  0  0  0  0  0  0  0  0  0
    7.7083   -4.4473   -9.0928 C   0  0  0  0  0  0  0  0  0  0  0  0
    8.0699   -4.2319  -10.3310 N   0  0  0  0  0  0  0  0  0  0  0  0
    9.4383   -3.9913  -10.2909 C   0  0  0  0  0  0  0  0  0  0  0  0
   10.2870   -3.7582  -11.3209 C   0  0  0  0  0  0  0  0  0  0  0  0
   11.7340   -3.5144  -10.9905 C   0  0  0  0  0  0  0  0  0  0  0  0
   12.5702   -4.5466  -10.5359 C   0  0  0  0  0  0  0  0  0  0  0  0
   12.0772   -5.7804  -10.3431 F   0  0  0  0  0  0  0  0  0  0  0  0
   13.9077   -4.3182  -10.2292 C   0  0  0  0  0  0  0  0  0  0  0  0
   14.4344   -3.0373  -10.4031 C   0  0  0  0  0  0  0  0  0  0  0  0
   16.1699   -2.7543   -9.9941 S   0  0  0  0  0  0  0  0  0  0  0  0
   16.1264   -2.7517   -8.5349 O   0  0  0  0  0  0  0  0  0  0  0  0
   16.8283   -3.9042  -10.6057 O   0  0  0  0  0  0  0  0  0  0  0  0
   16.4598   -1.4659  -10.6153 O   0  5  0  0  0  0  0  0  0  0  0  0
   13.6432   -1.9950  -10.8839 C   0  0  0  0  0  0  0  0  0  0  0  0
   12.3007   -2.2404  -11.1591 C   0  0  0  0  0  0  0  0  0  0  0  0
   11.5474   -1.2171  -11.5917 F   0  0  0  0  0  0  0  0  0  0  0  0
    9.8875   -3.7305  -12.7042 C   0  0  0  0  0  0  0  0  0  0  0  0
   10.6800   -3.5582  -13.8258 C   0  0  0  0  0  0  0  0  0  0  0  0
    9.8512   -3.5685  -14.9531 C   0  0  0  0  0  0  0  0  0  0  0  0
    8.5479   -3.7896  -14.5374 C   0  0  0  0  0  0  0  0  0  0  0  0
    8.5841   -3.8807  -13.1558 N   0  0  0  0  0  0  0  0  0  0  0  0
    7.3587   -3.9060  -15.3443 C   0  0  0  0  0  0  0  0  0  0  0  0
    7.5145   -3.7919  -16.8344 C   0  0  0  0  0  0  0  0  0  0  0  0
    7.1090   -2.6437  -17.5310 C   0  0  0  0  0  0  0  0  0  0  0  0
    6.5068   -1.6358  -16.8802 F   0  0  0  0  0  0  0  0  0  0  0  0
    7.2964   -2.5249  -18.9043 C   0  0  0  0  0  0  0  0  0  0  0  0
    7.9212   -3.5645  -19.5965 C   0  0  0  0  0  0  0  0  0  0  0  0
    8.2005   -3.3798  -21.3706 S   0  0  0  0  0  0  0  0  0  0  0  0
    6.8608   -3.6029  -21.9037 O   0  0  0  0  0  0  0  0  0  0  0  0
    8.7023   -2.0125  -21.4684 O   0  0  0  0  0  0  0  0  0  0  0  0
    9.1780   -4.4218  -21.6704 O   0  5  0  0  0  0  0  0  0  0  0  0
    8.3508   -4.7134  -18.9333 C   0  0  0  0  0  0  0  0  0  0  0  0
    8.1319   -4.8207  -17.5639 C   0  0  0  0  0  0  0  0  0  0  0  0
    8.5455   -5.9363  -16.9420 F   0  0  0  0  0  0  0  0  0  0  0  0
    6.1112   -4.1306  -14.8632 C   0  0  0  0  0  0  0  0  0  0  0  0
    5.6994   -4.3035  -13.5467 N   0  0  0  0  0  0  0  0  0  0  0  0
    4.4009   -4.4831  -13.5982 C   0  0  0  0  0  0  0  0  0  0  0  0
    3.4388   -4.7382  -12.4708 C   0  0  0  0  0  0  0  0  0  0  0  0
    1.9837   -4.9007  -12.7293 C   0  0  0  0  0  0  0  0  0  0  0  0
    1.4899   -6.0522  -13.3591 C   0  0  0  0  0  0  0  0  0  0  0  0
    2.3373   -7.0115  -13.7616 F   0  0  0  0  0  0  0  0  0  0  0  0
    0.1309   -6.2257  -13.5989 C   0  0  0  0  0  0  0  0  0  0  0  0
   -0.7616   -5.2360  -13.1832 C   0  0  0  0  0  0  0  0  0  0  0  0
   -2.5290   -5.4954  -13.4506 S   0  0  0  0  0  0  0  0  0  0  0  0
   -2.6467   -5.2553  -14.8840 O   0  0  0  0  0  0  0  0  0  0  0  0
   -2.7060   -6.8780  -13.0175 O   0  0  0  0  0  0  0  0  0  0  0  0
   -3.1480   -4.4930  -12.5882 O   0  5  0  0  0  0  0  0  0  0  0  0
   -0.3087   -4.0842  -12.5407 C   0  0  0  0  0  0  0  0  0  0  0  0
    1.0578   -3.9232  -12.3330 C   0  0  0  0  0  0  0  0  0  0  0  0
    1.4787   -2.8107  -11.7113 F   0  0  0  0  0  0  0  0  0  0  0  0
    3.9115   -4.8333  -11.2129 C   0  0  0  0  0  0  0  0  0  0  0  0
    3.1005   -5.0695  -10.0228 C   0  0  0  0  0  0  0  0  0  0  0  0
    3.8920   -5.0340   -8.9389 C   0  0  0  0  0  0  0  0  0  0  0  0
    5.2770   -4.8136   -9.3621 C   0  0  0  0  0  0  0  0  0  0  0  0
    5.1941   -4.7222  -10.7291 N   0  0  0  0  0  0  0  0  0  0  0  0
    3.8371   -4.4197  -14.9535 C   0  0  0  0  0  0  0  0  0  0  0  0
    4.9255   -4.2359  -15.6890 C   0  0  0  0  0  0  0  0  0  0  0  0
    9.8356   -4.0498   -8.9002 C   0  0  0  0  0  0  0  0  0  0  0  0
    8.8155   -4.3896   -8.1248 C   0  0  0  0  0  0  0  0  0  0  0  0
    6.3436   -3.6144   -6.2980 C   0  0  0  0  0  0  0  0  0  0  0  0
    6.1318   -3.6314   -4.9216 C   0  0  0  0  0  0  0  0  0  0  0  0
    2.3869    1.9287    0.7539 H   0  0  0  0  0  0  0  0  0  0  0  0
    3.7399    1.2107   -0.1805 H   0  0  0  0  0  0  0  0  0  0  0  0
    3.1815    1.2124    2.6387 H   0  0  0  0  0  0  0  0  0  0  0  0
    7.1203   -1.9238    0.6304 H   0  0  0  0  0  0  0  0  0  0  0  0
    7.4965   -3.9247    1.0719 H   0  0  0  0  0  0  0  0  0  0  0  0
    4.1728   -5.2858    0.6916 H   0  0  0  0  0  0  0  0  0  0  0  0
    5.1625   -9.3567    0.8958 H   0  0  0  0  0  0  0  0  0  0  0  0
    7.4229   -8.7604    1.5077 H   0  0  0  0  0  0  0  0  0  0  0  0
   10.2863   -5.7312    1.9154 H   0  0  0  0  0  0  0  0  0  0  0  0
    8.8085   -4.6926    1.9253 H   0  0  0  0  0  0  0  0  0  0  0  0
    8.2750   -6.2668   -0.9763 H   0  0  0  0  0  0  0  0  0  0  0  0
    8.6966   -5.3313   -3.1673 H   0  0  0  0  0  0  0  0  0  0  0  0
   10.3393   -3.5719   -3.4464 H   0  0  0  0  0  0  0  0  0  0  0  0
   11.5569   -2.7424   -1.5198 H   0  0  0  0  0  0  0  0  0  0  0  0
   11.0933   -3.6279    0.6855 H   0  0  0  0  0  0  0  0  0  0  0  0
    6.9625    0.3853    1.0892 H   0  0  0  0  0  0  0  0  0  0  0  0
    3.7167   -0.8456   -0.8786 H   0  0  0  0  0  0  0  0  0  0  0  0
    1.0806   -2.1267   -1.0151 H   0  0  0  0  0  0  0  0  0  0  0  0
    2.5310   -3.0284   -0.5590 H   0  0  0  0  0  0  0  0  0  0  0  0
    2.0352   -1.6951   -3.1829 H   0  0  0  0  0  0  0  0  0  0  0  0
    2.0112   -3.4479   -2.8195 H   0  0  0  0  0  0  0  0  0  0  0  0
    4.4212   -1.7162   -2.6409 H   0  0  0  0  0  0  0  0  0  0  0  0
    3.9924   -2.7789   -4.0016 H   0  0  0  0  0  0  0  0  0  0  0  0
    4.5321   -3.7589   -1.3196 H   0  0  0  0  0  0  0  0  0  0  0  0
    5.0888   -6.8038   -4.5972 H   0  0  0  0  0  0  0  0  0  0  0  0
    5.5902   -6.8139   -6.9734 H   0  0  0  0  0  0  0  0  0  0  0  0
   14.5023   -5.0851   -9.8780 H   0  0  0  0  0  0  0  0  0  0  0  0
   14.0461   -1.0567  -11.0334 H   0  0  0  0  0  0  0  0  0  0  0  0
   11.7054   -3.4421  -13.8299 H   0  0  0  0  0  0  0  0  0  0  0  0
   10.1585   -3.4342  -15.9291 H   0  0  0  0  0  0  0  0  0  0  0  0
    7.8003   -4.0301  -12.5790 H   0  0  0  0  0  0  0  0  0  0  0  0
    6.9781   -1.6803  -19.4046 H   0  0  0  0  0  0  0  0  0  0  0  0
    8.8233   -5.4716  -19.4499 H   0  0  0  0  0  0  0  0  0  0  0  0
   -0.2125   -7.0734  -14.0770 H   0  0  0  0  0  0  0  0  0  0  0  0
   -0.9759   -3.3632  -12.2245 H   0  0  0  0  0  0  0  0  0  0  0  0
    2.0822   -5.2369  -10.0155 H   0  0  0  0  0  0  0  0  0  0  0  0
    3.5751   -5.1444   -7.9630 H   0  0  0  0  0  0  0  0  0  0  0  0
    5.9788   -4.5896  -11.3087 H   0  0  0  0  0  0  0  0  0  0  0  0
    2.8530   -4.4977  -15.2542 H   0  0  0  0  0  0  0  0  0  0  0  0
    4.9275   -4.1755  -16.7192 H   0  0  0  0  0  0  0  0  0  0  0  0
   10.7887   -3.8527   -8.5571 H   0  0  0  0  0  0  0  0  0  0  0  0
    8.8014   -4.5672   -7.1083 H   0  0  0  0  0  0  0  0  0  0  0  0
    6.6625   -2.7466   -6.7566 H   0  0  0  0  0  0  0  0  0  0  0  0
    6.3616   -2.8017   -4.3526 H   0  0  0  0  0  0  0  0  0  0  0  0
  1  2  2  0  0  0  0
  2  3  1  0  0  0  0
  2 28  1  0  0  0  0
  3  4  1  0  0  0  0
  3101  1  0  0  0  0
  3102  1  0  0  0  0
  4  5  1  0  0  0  0
  4 26  1  0  0  0  0
  4103  1  1  0  0  0
  5  6  1  0  0  0  0
  6  7  2  0  0  0  0
  6 25  1  0  0  0  0
  7  8  1  0  0  0  0
  7104  1  0  0  0  0
  8  9  2  0  0  0  0
  9 10  1  0  0  0  0
  9105  1  0  0  0  0
 10 11  1  0  0  0  0
 10 16  2  0  0  0  0
 11 12  2  0  0  0  0
 11106  1  0  0  0  0
 12 13  1  0  0  0  0
 12 14  1  0  0  0  0
 14 15  2  0  0  0  0
 14107  1  0  0  0  0
 15 16  1  0  0  0  0
 15108  1  0  0  0  0
 16 17  1  0  0  0  0
 17 18  1  0  0  0  0
 18 19  1  0  0  0  0
 18109  1  0  0  0  0
 18110  1  0  0  0  0
 19 20  1  0  0  0  0
 19 24  2  0  0  0  0
 20 21  2  0  0  0  0
 20111  1  0  0  0  0
 21 22  1  0  0  0  0
 21112  1  0  0  0  0
 22 23  2  0  0  0  0
 22113  1  0  0  0  0
 23 24  1  0  0  0  0
 23114  1  0  0  0  0
 24115  1  0  0  0  0
 25 26  1  0  0  0  0
 25116  1  0  0  0  0
 26 27  2  0  0  0  0
 28 29  1  0  0  0  0
 28117  1  0  0  0  0
 29 30  1  0  0  0  0
 29118  1  0  0  0  0
 29119  1  0  0  0  0
 30 31  1  0  0  0  0
 30120  1  0  0  0  0
 30121  1  0  0  0  0
 31 32  1  0  0  0  0
 31122  1  0  0  0  0
 31123  1  0  0  0  0
 32 33  1  0  0  0  0
 32124  1  0  0  0  0
 33 34  2  0  0  0  0
 33 35  1  0  0  0  0
 35 36  1  0  0  0  0
 35100  2  0  0  0  0
 36 37  2  0  0  0  0
 36125  1  0  0  0  0
 37 38  1  0  0  0  0
 37126  1  0  0  0  0
 38 39  1  0  0  0  0
 38 99  2  0  0  0  0
 39 40  1  0  0  0  0
 39 93  2  0  0  0  0
 40 41  2  0  0  0  0
 40 98  1  0  0  0  0
 41 42  1  0  0  0  0
 42 43  2  0  0  0  0
 42 97  1  0  0  0  0
 43 44  1  0  0  0  0
 43 56  1  0  0  0  0
 44 45  1  0  0  0  0
 44 54  2  0  0  0  0
 45 46  1  0  0  0  0
 45 47  2  0  0  0  0
 47 48  1  0  0  0  0
 47127  1  0  0  0  0
 48 49  1  0  0  0  0
 48 53  2  0  0  0  0
 49 50  2  0  0  0  0
 49 51  2  0  0  0  0
 49 52  1  0  0  0  0
 53 54  1  0  0  0  0
 53128  1  0  0  0  0
 54 55  1  0  0  0  0
 56 57  2  0  0  0  0
 56 60  1  0  0  0  0
 57 58  1  0  0  0  0
 57129  1  0  0  0  0
 58 59  2  0  0  0  0
 58130  1  0  0  0  0
 59 60  1  0  0  0  0
 59 61  1  0  0  0  0
 60131  1  0  0  0  0
 61 62  1  0  0  0  0
 61 74  2  0  0  0  0
 62 63  1  0  0  0  0
 62 72  2  0  0  0  0
 63 64  1  0  0  0  0
 63 65  2  0  0  0  0
 65 66  1  0  0  0  0
 65132  1  0  0  0  0
 66 67  1  0  0  0  0
 66 71  2  0  0  0  0
 67 68  2  0  0  0  0
 67 69  2  0  0  0  0
 67 70  1  0  0  0  0
 71 72  1  0  0  0  0
 71133  1  0  0  0  0
 72 73  1  0  0  0  0
 74 75  1  0  0  0  0
 74 96  1  0  0  0  0
 75 76  2  0  0  0  0
 76 77  1  0  0  0  0
 76 95  1  0  0  0  0
 77 78  1  0  0  0  0
 77 90  2  0  0  0  0
 78 79  1  0  0  0  0
 78 88  2  0  0  0  0
 79 80  1  0  0  0  0
 79 81  2  0  0  0  0
 81 82  1  0  0  0  0
 81134  1  0  0  0  0
 82 83  1  0  0  0  0
 82 87  2  0  0  0  0
 83 84  2  0  0  0  0
 83 85  2  0  0  0  0
 83 86  1  0  0  0  0
 87 88  1  0  0  0  0
 87135  1  0  0  0  0
 88 89  1  0  0  0  0
 90 91  1  0  0  0  0
 90 94  1  0  0  0  0
 91 92  2  0  0  0  0
 91136  1  0  0  0  0
 92 93  1  0  0  0  0
 92137  1  0  0  0  0
 93 94  1  0  0  0  0
 94138  1  0  0  0  0
 95 96  2  0  0  0  0
 95139  1  0  0  0  0
 96140  1  0  0  0  0
 97 98  2  0  0  0  0
 97141  1  0  0  0  0
 98142  1  0  0  0  0
 99100  1  0  0  0  0
 99143  1  0  0  0  0
100144  1  0  0  0  0
M  CHG  4   7   1  52  -1  70  -1  86  -1
M  END
$$$$
