4_3_1825
 OpenBabel04152300273D

151164  0  0  0  0  0  0  0  0999 V2000
    1.2942   -0.1701   -0.2100 O   0  0  0  0  0  0  0  0  0  0  0  0
    2.5184   -0.1768   -0.0961 C   0  0  0  0  0  0  0  0  0  0  0  0
    3.2375   -1.3012    0.6321 C   0  0  0  0  0  0  0  0  0  0  0  0
    4.1679   -1.9959   -0.1916 O   0  0  0  0  0  0  0  0  0  0  0  0
    3.5680   -3.0390   -0.8371 C   0  0  0  0  0  0  0  0  0  0  0  0
    3.9597   -4.3156   -0.4625 C   0  0  0  0  0  0  0  0  0  0  0  0
    3.4154   -5.3969   -1.1302 C   0  0  0  0  0  0  0  0  0  0  0  0
    2.4869   -5.1919   -2.1572 C   0  0  0  0  0  0  0  0  0  0  0  0
    2.0639   -3.9175   -2.5344 C   0  0  0  0  0  0  0  0  0  0  0  0
    1.1386   -3.6227   -3.5685 N   0  0  0  0  0  0  0  0  0  0  0  0
    0.2484   -4.3919   -4.2976 C   0  0  0  0  0  0  0  0  0  0  0  0
   -0.3436   -3.9382   -5.2721 O   0  0  0  0  0  0  0  0  0  0  0  0
   -0.0916   -5.7447   -3.8360 C   0  0  0  0  0  0  0  0  0  0  0  0
    0.5928   -6.8625   -4.3664 C   0  0  0  0  0  0  0  0  0  0  0  0
    0.6837   -8.0392   -3.6060 C   0  0  0  0  0  0  0  0  0  0  0  0
    0.0641   -8.0365   -2.3642 C   0  0  0  0  0  0  0  0  0  0  0  0
   -0.7439   -6.9998   -1.9681 C   0  0  0  0  0  0  0  0  0  0  0  0
   -0.8694   -5.8310   -2.6834 C   0  0  0  0  0  0  0  0  0  0  0  0
   -1.0760   -7.1985   -0.5781 C   0  0  0  0  0  0  0  0  0  0  0  0
   -1.9744   -6.5342   -0.0960 O   0  0  0  0  0  0  0  0  0  0  0  0
   -0.2067   -8.1553   -0.0934 N   0  0  0  0  0  0  0  0  0  0  0  0
    0.0892   -8.2957    1.3114 C   0  0  0  0  0  0  0  0  0  0  0  0
   -0.7275   -7.5838    2.2296 C   0  0  0  0  0  0  0  0  0  0  0  0
   -0.4657   -7.5091    3.5947 C   0  0  0  0  0  0  0  0  0  0  0  0
    0.6159   -8.1866    4.1047 C   0  0  0  0  0  0  0  0  0  0  0  0
    1.4204   -8.9321    3.2612 C   0  0  0  0  0  0  0  0  0  0  0  0
    1.2087   -8.9777    1.8612 C   0  0  0  0  0  0  0  0  0  0  0  0
    2.2989   -9.6466    1.1410 C   0  0  0  0  0  0  0  0  0  0  0  0
    2.3320  -11.0436    1.0221 C   0  0  0  0  0  0  0  0  0  0  0  0
    3.4335  -11.6839    0.4503 C   0  0  0  0  0  0  0  0  0  0  0  0
    4.5278  -10.9384    0.0141 C   0  0  0  0  0  0  0  0  0  0  0  0
    4.5298   -9.5532    0.1625 C   0  0  0  0  0  0  0  0  0  0  0  0
    3.4261   -8.9146    0.7312 C   0  0  0  0  0  0  0  0  0  0  0  0
    0.3367   -8.8365   -1.1652 C   0  0  0  0  0  0  0  0  0  0  0  0
    0.9249   -9.8936   -1.2893 O   0  0  0  0  0  0  0  0  0  0  0  0
    2.6493   -2.8333   -1.8760 C   0  0  0  0  0  0  0  0  0  0  0  0
    3.2665    0.7892   -0.6850 O   0  0  0  0  0  0  0  0  0  0  0  0
    4.6478    1.0514   -0.3550 C   0  0  0  0  0  0  0  0  0  0  0  0
    4.7493    2.0862    0.7653 C   0  0  0  0  0  0  0  0  0  0  0  0
    4.2695    1.5155    1.9970 O   0  0  0  0  0  0  0  0  0  0  0  0
    2.9894    1.8252    2.3285 C   0  0  0  0  0  0  0  0  0  0  0  0
    2.2681    2.6242    1.7591 O   0  0  0  0  0  0  0  0  0  0  0  0
    2.5224    0.8913    3.3803 C   0  0  0  0  0  0  0  0  0  0  0  0
    1.2025    0.4277    3.3135 C   0  0  0  0  0  0  0  0  0  0  0  0
    0.7019   -0.4063    4.3160 C   0  0  0  0  0  0  0  0  0  0  0  0
    1.5139   -0.7684    5.4000 C   0  0  0  0  0  0  0  0  0  0  0  0
    0.8951   -1.3686    6.6087 C   0  0  0  0  0  0  0  0  0  0  0  0
    0.4413   -0.4420    7.7066 C   0  0  0  0  0  0  0  0  0  0  0  0
   -0.1733   -0.7196    8.8268 N   0  0  0  0  0  0  0  0  0  0  0  0
   -0.3318    0.4963    9.4806 C   0  0  0  0  0  0  0  0  0  0  0  0
   -0.9350    0.7522   10.6653 C   0  0  0  0  0  0  0  0  0  0  0  0
   -0.9431    2.1775   11.1338 C   0  0  0  0  0  0  0  0  0  0  0  0
   -1.7735    3.1418   10.5416 C   0  0  0  0  0  0  0  0  0  0  0  0
   -2.5717    2.8081    9.5150 F   0  0  0  0  0  0  0  0  0  0  0  0
   -1.7557    4.4679   10.9589 C   0  0  0  0  0  0  0  0  0  0  0  0
   -0.9068    4.8375   12.0039 C   0  0  0  0  0  0  0  0  0  0  0  0
   -0.8797    6.5640   12.5288 S   0  0  0  0  0  0  0  0  0  0  0  0
   -0.0833    7.1755   11.4693 O   0  0  0  0  0  0  0  0  0  0  0  0
   -2.2966    6.9132   12.5381 O   0  0  0  0  0  0  0  0  0  0  0  0
   -0.2430    6.5084   13.8409 O   0  5  0  0  0  0  0  0  0  0  0  0
   -0.0930    3.8985   12.6372 C   0  0  0  0  0  0  0  0  0  0  0  0
   -0.1104    2.5823   12.1883 C   0  0  0  0  0  0  0  0  0  0  0  0
    0.7064    1.6984   12.7827 F   0  0  0  0  0  0  0  0  0  0  0  0
   -1.5428   -0.2472   11.5005 C   0  0  0  0  0  0  0  0  0  0  0  0
   -2.2152   -0.0773   12.6983 C   0  0  0  0  0  0  0  0  0  0  0  0
   -2.5921   -1.3396   13.1713 C   0  0  0  0  0  0  0  0  0  0  0  0
   -2.1869   -2.2892   12.2483 C   0  0  0  0  0  0  0  0  0  0  0  0
   -1.5433   -1.6060   11.2305 N   0  0  0  0  0  0  0  0  0  0  0  0
   -2.3746   -3.7154   12.2850 C   0  0  0  0  0  0  0  0  0  0  0  0
   -3.1271   -4.3021   13.4441 C   0  0  0  0  0  0  0  0  0  0  0  0
   -2.4719   -5.0230   14.4546 C   0  0  0  0  0  0  0  0  0  0  0  0
   -1.1466   -5.2269   14.3883 F   0  0  0  0  0  0  0  0  0  0  0  0
   -3.1716   -5.5736   15.5228 C   0  0  0  0  0  0  0  0  0  0  0  0
   -4.5526   -5.3831   15.5983 C   0  0  0  0  0  0  0  0  0  0  0  0
   -5.4519   -6.0854   16.9972 S   0  0  0  0  0  0  0  0  0  0  0  0
   -5.5582   -7.4862   16.6034 O   0  0  0  0  0  0  0  0  0  0  0  0
   -4.5591   -5.8082   18.1185 O   0  0  0  0  0  0  0  0  0  0  0  0
   -6.7047   -5.3360   17.0032 O   0  5  0  0  0  0  0  0  0  0  0  0
   -5.2313   -4.6470   14.6273 C   0  0  0  0  0  0  0  0  0  0  0  0
   -4.5148   -4.1249   13.5555 C   0  0  0  0  0  0  0  0  0  0  0  0
   -5.1862   -3.4367   12.6187 F   0  0  0  0  0  0  0  0  0  0  0  0
   -1.9327   -4.5754   11.3355 C   0  0  0  0  0  0  0  0  0  0  0  0
   -1.2238   -4.3044   10.1698 N   0  0  0  0  0  0  0  0  0  0  0  0
   -1.0148   -5.4674    9.6037 C   0  0  0  0  0  0  0  0  0  0  0  0
   -0.3159   -5.7830    8.3081 C   0  0  0  0  0  0  0  0  0  0  0  0
   -0.2247   -7.1979    7.8672 C   0  0  0  0  0  0  0  0  0  0  0  0
   -1.3498   -7.8560    7.3449 C   0  0  0  0  0  0  0  0  0  0  0  0
   -2.5054   -7.1902    7.1984 F   0  0  0  0  0  0  0  0  0  0  0  0
   -1.3071   -9.1978    6.9800 C   0  0  0  0  0  0  0  0  0  0  0  0
   -0.1096   -9.8990    7.1310 C   0  0  0  0  0  0  0  0  0  0  0  0
    0.0161  -11.5901    6.5030 S   0  0  0  0  0  0  0  0  0  0  0  0
   -0.3340  -12.3671    7.6853 O   0  0  0  0  0  0  0  0  0  0  0  0
   -0.9587  -11.6066    5.4173 O   0  0  0  0  0  0  0  0  0  0  0  0
    1.4119  -11.6663    6.0795 O   0  5  0  0  0  0  0  0  0  0  0  0
    1.0287   -9.2754    7.6505 C   0  0  0  0  0  0  0  0  0  0  0  0
    0.9580   -7.9340    8.0174 C   0  0  0  0  0  0  0  0  0  0  0  0
    2.0614   -7.3435    8.5004 F   0  0  0  0  0  0  0  0  0  0  0  0
    0.1786   -4.7814    7.5529 C   0  0  0  0  0  0  0  0  0  0  0  0
    0.8486   -4.9262    6.2631 C   0  0  0  0  0  0  0  0  0  0  0  0
    1.1654   -3.7090    5.7832 C   0  0  0  0  0  0  0  0  0  0  0  0
    0.7367   -2.6974    6.7456 C   0  0  0  0  0  0  0  0  0  0  0  0
    0.1715   -3.4233    7.7661 N   0  0  0  0  0  0  0  0  0  0  0  0
   -1.5561   -6.6107   10.3551 C   0  0  0  0  0  0  0  0  0  0  0  0
   -2.1348   -6.0079   11.3832 C   0  0  0  0  0  0  0  0  0  0  0  0
    0.2767    1.5098    8.6465 C   0  0  0  0  0  0  0  0  0  0  0  0
    0.7374    0.9885    7.5201 C   0  0  0  0  0  0  0  0  0  0  0  0
    2.8589   -0.3627    5.4224 C   0  0  0  0  0  0  0  0  0  0  0  0
    3.3622    0.4698    4.4172 C   0  0  0  0  0  0  0  0  0  0  0  0
    3.7887   -0.8957    1.4825 H   0  0  0  0  0  0  0  0  0  0  0  0
    2.4925   -1.9804    1.0709 H   0  0  0  0  0  0  0  0  0  0  0  0
    4.6839   -4.4656    0.3331 H   0  0  0  0  0  0  0  0  0  0  0  0
    3.7236   -6.4064   -0.8763 H   0  0  0  0  0  0  0  0  0  0  0  0
    2.1720   -6.0811   -2.6672 H   0  0  0  0  0  0  0  0  0  0  0  0
    1.0797   -2.6461   -3.8387 H   0  0  0  0  0  0  0  0  0  0  0  0
    1.1915   -6.7478   -5.2682 H   0  0  0  0  0  0  0  0  0  0  0  0
    1.3518   -8.8453   -3.8955 H   0  0  0  0  0  0  0  0  0  0  0  0
   -1.3788   -4.9705   -2.2591 H   0  0  0  0  0  0  0  0  0  0  0  0
   -1.6128   -7.0379    1.9239 H   0  0  0  0  0  0  0  0  0  0  0  0
   -1.1163   -6.9289    4.2443 H   0  0  0  0  0  0  0  0  0  0  0  0
    0.8485   -8.1505    5.1569 H   0  0  0  0  0  0  0  0  0  0  0  0
    2.2553   -9.4751    3.7086 H   0  0  0  0  0  0  0  0  0  0  0  0
    1.4970  -11.6366    1.3924 H   0  0  0  0  0  0  0  0  0  0  0  0
    3.4356  -12.7665    0.3647 H   0  0  0  0  0  0  0  0  0  0  0  0
    5.3866  -11.4425   -0.4185 H   0  0  0  0  0  0  0  0  0  0  0  0
    5.3983   -8.9747   -0.1368 H   0  0  0  0  0  0  0  0  0  0  0  0
    3.4588   -7.8433    0.9089 H   0  0  0  0  0  0  0  0  0  0  0  0
    2.3902   -1.8212   -2.1707 H   0  0  0  0  0  0  0  0  0  0  0  0
    5.1875    0.1402   -0.0932 H   0  0  0  0  0  0  0  0  0  0  0  0
    5.1100    1.4498   -1.2641 H   0  0  0  0  0  0  0  0  0  0  0  0
    5.7999    2.3501    0.9229 H   0  0  0  0  0  0  0  0  0  0  0  0
    4.2114    3.0036    0.5024 H   0  0  0  0  0  0  0  0  0  0  0  0
    0.5498    0.7356    2.4967 H   0  0  0  0  0  0  0  0  0  0  0  0
   -0.3424   -0.7148    4.2831 H   0  0  0  0  0  0  0  0  0  0  0  0
   -2.3840    5.2092   10.4747 H   0  0  0  0  0  0  0  0  0  0  0  0
    0.5536    4.1865   13.4600 H   0  0  0  0  0  0  0  0  0  0  0  0
   -2.4023    0.8653   13.1956 H   0  0  0  0  0  0  0  0  0  0  0  0
   -3.1220   -1.5346   14.0943 H   0  0  0  0  0  0  0  0  0  0  0  0
   -1.1317   -2.0384   10.4108 H   0  0  0  0  0  0  0  0  0  0  0  0
   -2.6545   -6.1475   16.2857 H   0  0  0  0  0  0  0  0  0  0  0  0
   -6.3023   -4.4856   14.6992 H   0  0  0  0  0  0  0  0  0  0  0  0
   -2.1839   -9.6859    6.5639 H   0  0  0  0  0  0  0  0  0  0  0  0
    1.9625   -9.8231    7.7386 H   0  0  0  0  0  0  0  0  0  0  0  0
    1.0637   -5.8561    5.7679 H   0  0  0  0  0  0  0  0  0  0  0  0
    1.6657   -3.5189    4.8481 H   0  0  0  0  0  0  0  0  0  0  0  0
   -0.2476   -2.9988    8.5904 H   0  0  0  0  0  0  0  0  0  0  0  0
   -1.5279   -7.6617   10.1437 H   0  0  0  0  0  0  0  0  0  0  0  0
   -2.6668   -6.5464   12.1520 H   0  0  0  0  0  0  0  0  0  0  0  0
    0.3378    2.5627    8.8730 H   0  0  0  0  0  0  0  0  0  0  0  0
    1.2099    1.5027    6.7074 H   0  0  0  0  0  0  0  0  0  0  0  0
    3.4932   -0.6257    6.2680 H   0  0  0  0  0  0  0  0  0  0  0  0
    4.3880    0.8246    4.4810 H   0  0  0  0  0  0  0  0  0  0  0  0
  1  2  2  0  0  0  0
  2  3  1  0  0  0  0
  2 37  1  0  0  0  0
  3  4  1  0  0  0  0
  3109  1  0  0  0  0
  3110  1  0  0  0  0
  4  5  1  0  0  0  0
  5  6  1  0  0  0  0
  5 36  2  0  0  0  0
  6  7  2  0  0  0  0
  6111  1  0  0  0  0
  7  8  1  0  0  0  0
  7112  1  0  0  0  0
  8  9  2  0  0  0  0
  8113  1  0  0  0  0
  9 10  1  0  0  0  0
  9 36  1  0  0  0  0
 10 11  1  0  0  0  0
 10114  1  0  0  0  0
 11 12  2  0  0  0  0
 11 13  1  0  0  0  0
 13 14  1  0  0  0  0
 13 18  2  0  0  0  0
 14 15  2  0  0  0  0
 14115  1  0  0  0  0
 15 16  1  0  0  0  0
 15116  1  0  0  0  0
 16 17  2  0  0  0  0
 16 34  1  0  0  0  0
 17 18  1  0  0  0  0
 17 19  1  0  0  0  0
 18117  1  0  0  0  0
 19 20  2  0  0  0  0
 19 21  1  0  0  0  0
 21 22  1  0  0  0  0
 21 34  1  0  0  0  0
 22 23  1  0  0  0  0
 22 27  2  0  0  0  0
 23 24  2  0  0  0  0
 23118  1  0  0  0  0
 24 25  1  0  0  0  0
 24119  1  0  0  0  0
 25 26  2  0  0  0  0
 25120  1  0  0  0  0
 26 27  1  0  0  0  0
 26121  1  0  0  0  0
 27 28  1  0  0  0  0
 28 29  1  0  0  0  0
 28 33  2  0  0  0  0
 29 30  2  0  0  0  0
 29122  1  0  0  0  0
 30 31  1  0  0  0  0
 30123  1  0  0  0  0
 31 32  2  0  0  0  0
 31124  1  0  0  0  0
 32 33  1  0  0  0  0
 32125  1  0  0  0  0
 33126  1  0  0  0  0
 34 35  2  0  0  0  0
 36127  1  0  0  0  0
 37 38  1  0  0  0  0
 38 39  1  0  0  0  0
 38128  1  0  0  0  0
 38129  1  0  0  0  0
 39 40  1  0  0  0  0
 39130  1  0  0  0  0
 39131  1  0  0  0  0
 40 41  1  0  0  0  0
 41 42  2  0  0  0  0
 41 43  1  0  0  0  0
 43 44  1  0  0  0  0
 43108  2  0  0  0  0
 44 45  2  0  0  0  0
 44132  1  0  0  0  0
 45 46  1  0  0  0  0
 45133  1  0  0  0  0
 46 47  1  0  0  0  0
 46107  2  0  0  0  0
 47 48  1  0  0  0  0
 47101  2  0  0  0  0
 48 49  2  0  0  0  0
 48106  1  0  0  0  0
 49 50  1  0  0  0  0
 50 51  2  0  0  0  0
 50105  1  0  0  0  0
 51 52  1  0  0  0  0
 51 64  1  0  0  0  0
 52 53  1  0  0  0  0
 52 62  2  0  0  0  0
 53 54  1  0  0  0  0
 53 55  2  0  0  0  0
 55 56  1  0  0  0  0
 55134  1  0  0  0  0
 56 57  1  0  0  0  0
 56 61  2  0  0  0  0
 57 58  2  0  0  0  0
 57 59  2  0  0  0  0
 57 60  1  0  0  0  0
 61 62  1  0  0  0  0
 61135  1  0  0  0  0
 62 63  1  0  0  0  0
 64 65  2  0  0  0  0
 64 68  1  0  0  0  0
 65 66  1  0  0  0  0
 65136  1  0  0  0  0
 66 67  2  0  0  0  0
 66137  1  0  0  0  0
 67 68  1  0  0  0  0
 67 69  1  0  0  0  0
 68138  1  0  0  0  0
 69 70  1  0  0  0  0
 69 82  2  0  0  0  0
 70 71  1  0  0  0  0
 70 80  2  0  0  0  0
 71 72  1  0  0  0  0
 71 73  2  0  0  0  0
 73 74  1  0  0  0  0
 73139  1  0  0  0  0
 74 75  1  0  0  0  0
 74 79  2  0  0  0  0
 75 76  2  0  0  0  0
 75 77  2  0  0  0  0
 75 78  1  0  0  0  0
 79 80  1  0  0  0  0
 79140  1  0  0  0  0
 80 81  1  0  0  0  0
 82 83  1  0  0  0  0
 82104  1  0  0  0  0
 83 84  2  0  0  0  0
 84 85  1  0  0  0  0
 84103  1  0  0  0  0
 85 86  1  0  0  0  0
 85 98  2  0  0  0  0
 86 87  1  0  0  0  0
 86 96  2  0  0  0  0
 87 88  1  0  0  0  0
 87 89  2  0  0  0  0
 89 90  1  0  0  0  0
 89141  1  0  0  0  0
 90 91  1  0  0  0  0
 90 95  2  0  0  0  0
 91 92  2  0  0  0  0
 91 93  2  0  0  0  0
 91 94  1  0  0  0  0
 95 96  1  0  0  0  0
 95142  1  0  0  0  0
 96 97  1  0  0  0  0
 98 99  1  0  0  0  0
 98102  1  0  0  0  0
 99100  2  0  0  0  0
 99143  1  0  0  0  0
100101  1  0  0  0  0
100144  1  0  0  0  0
101102  1  0  0  0  0
102145  1  0  0  0  0
103104  2  0  0  0  0
103146  1  0  0  0  0
104147  1  0  0  0  0
105106  2  0  0  0  0
105148  1  0  0  0  0
106149  1  0  0  0  0
107108  1  0  0  0  0
107150  1  0  0  0  0
108151  1  0  0  0  0
M  CHG  3  60  -1  78  -1  94  -1
M  END
$$$$
