4_3_4227
 OpenBabel04152301373D

142153  0  0  1  0  0  0  0  0999 V2000
    6.2828    2.9272    2.4918 O   0  0  0  0  0  0  0  0  0  0  0  0
    5.6855    2.6441    1.4531 C   0  0  0  0  0  0  0  0  0  0  0  0
    4.9059    1.3571    1.3621 C   0  0  0  0  0  0  0  0  0  0  0  0
    3.4329    1.4044    1.7924 C   0  0  2  0  0  0  0  0  0  0  0  0
    2.4898    1.2384    0.5661 C   0  0  0  0  0  0  0  0  0  0  0  0
    2.9278    1.0108   -0.5694 O   0  0  0  0  0  0  0  0  0  0  0  0
    1.1325    1.3061    0.6338 N   0  0  0  0  0  0  0  0  0  0  0  0
    0.2417    1.4823    1.7621 C   0  0  0  0  0  0  0  0  0  0  0  0
   -0.3964    2.8756    1.7158 C   0  0  0  0  0  0  0  0  0  0  0  0
   -1.2544    3.1029    2.9541 C   0  0  0  0  0  0  0  0  0  0  0  0
   -2.3137    2.0135    3.1056 C   0  0  0  0  0  0  0  0  0  0  0  0
   -1.7249    0.6038    3.0297 C   0  0  0  0  0  0  0  0  0  0  0  0
   -0.8486    0.4119    1.7923 C   0  0  0  0  0  0  0  0  0  0  0  0
    3.1093    2.5033    2.7925 C   0  0  0  0  0  0  0  0  0  0  0  0
    3.0357    1.6936    4.0408 C   0  0  0  0  0  0  0  0  0  0  0  0
    2.8203    2.3047    5.3659 C   0  0  0  0  0  0  0  0  0  0  0  0
    3.2954    1.6424    6.5060 C   0  0  0  0  0  0  0  0  0  0  0  0
    2.9960    2.1329    7.7801 C   0  0  0  0  0  0  0  0  0  0  0  0
    2.1992    3.2772    7.9029 C   0  0  0  0  0  0  0  0  0  0  0  0
    1.8256    3.7683    9.2331 N   0  3  0  0  0  0  0  0  0  0  0  0
    2.4649    3.3485   10.2066 O   0  0  0  0  0  0  0  0  0  0  0  0
    0.8962    4.5874    9.2998 O   0  5  0  0  0  0  0  0  0  0  0  0
    1.7322    3.9514    6.7649 C   0  0  0  0  0  0  0  0  0  0  0  0
    2.0546    3.4685    5.4942 C   0  0  0  0  0  0  0  0  0  0  0  0
    3.1162    0.4152    3.8819 N   0  0  0  0  0  0  0  0  0  0  0  0
    3.1882    0.1597    2.5004 O   0  0  0  0  0  0  0  0  0  0  0  0
    5.7177    3.5126    0.4206 O   0  0  0  0  0  0  0  0  0  0  0  0
    4.9588    3.4276   -0.8007 C   0  0  0  0  0  0  0  0  0  0  0  0
    5.7277    2.7781   -1.9524 C   0  0  0  0  0  0  0  0  0  0  0  0
    6.1261    1.4379   -1.6341 O   0  0  0  0  0  0  0  0  0  0  0  0
    7.3628    1.3073   -1.0919 C   0  0  0  0  0  0  0  0  0  0  0  0
    8.2042    2.1846   -0.9916 O   0  0  0  0  0  0  0  0  0  0  0  0
    7.4649   -0.0169   -0.4329 C   0  0  0  0  0  0  0  0  0  0  0  0
    8.1541   -0.0898    0.7847 C   0  0  0  0  0  0  0  0  0  0  0  0
    8.2543   -1.3069    1.4611 C   0  0  0  0  0  0  0  0  0  0  0  0
    7.6821   -2.4636    0.9147 C   0  0  0  0  0  0  0  0  0  0  0  0
    8.0086   -3.7897    1.4924 C   0  0  0  0  0  0  0  0  0  0  0  0
    9.1763   -4.5458    0.9189 C   0  0  0  0  0  0  0  0  0  0  0  0
    9.6657   -5.7071    1.2667 N   0  0  0  0  0  0  0  0  0  0  0  0
   10.7464   -5.9276    0.4222 C   0  0  0  0  0  0  0  0  0  0  0  0
   11.6134   -6.9668    0.4085 C   0  0  0  0  0  0  0  0  0  0  0  0
   12.7153   -6.9254   -0.6094 C   0  0  0  0  0  0  0  0  0  0  0  0
   13.8095   -6.0575   -0.4666 C   0  0  0  0  0  0  0  0  0  0  0  0
   13.8736   -5.2162    0.5777 F   0  0  0  0  0  0  0  0  0  0  0  0
   14.8255   -6.0095   -1.4144 C   0  0  0  0  0  0  0  0  0  0  0  0
   14.7607   -6.8591   -2.5202 C   0  0  0  0  0  0  0  0  0  0  0  0
   16.0846   -6.7848   -3.7447 S   0  0  0  0  0  0  0  0  0  0  0  0
   15.7646   -5.5436   -4.4432 O   0  0  0  0  0  0  0  0  0  0  0  0
   17.2821   -6.7516   -2.9112 O   0  0  0  0  0  0  0  0  0  0  0  0
   15.8987   -8.0071   -4.5202 O   0  5  0  0  0  0  0  0  0  0  0  0
   13.7018   -7.7526   -2.6803 C   0  0  0  0  0  0  0  0  0  0  0  0
   12.6851   -7.7684   -1.7306 C   0  0  0  0  0  0  0  0  0  0  0  0
   11.6569   -8.6110   -1.9157 F   0  0  0  0  0  0  0  0  0  0  0  0
   11.5369   -8.0980    1.2919 C   0  0  0  0  0  0  0  0  0  0  0  0
   12.3806   -9.1924    1.3636 C   0  0  0  0  0  0  0  0  0  0  0  0
   11.8816  -10.0648    2.3372 C   0  0  0  0  0  0  0  0  0  0  0  0
   10.7517   -9.4929    2.8999 C   0  0  0  0  0  0  0  0  0  0  0  0
   10.5516   -8.2877    2.2485 N   0  0  0  0  0  0  0  0  0  0  0  0
    9.9108  -10.0101    3.9500 C   0  0  0  0  0  0  0  0  0  0  0  0
   10.2823  -11.3392    4.5478 C   0  0  0  0  0  0  0  0  0  0  0  0
    9.5567  -12.5055    4.2614 C   0  0  0  0  0  0  0  0  0  0  0  0
    8.4599  -12.4463    3.4898 F   0  0  0  0  0  0  0  0  0  0  0  0
    9.9353  -13.7417    4.7769 C   0  0  0  0  0  0  0  0  0  0  0  0
   11.0749  -13.8230    5.5798 C   0  0  0  0  0  0  0  0  0  0  0  0
   11.5828  -15.4384    6.2079 S   0  0  0  0  0  0  0  0  0  0  0  0
   10.6288  -15.6455    7.2922 O   0  0  0  0  0  0  0  0  0  0  0  0
   11.4122  -16.2986    5.0409 O   0  0  0  0  0  0  0  0  0  0  0  0
   12.9664  -15.2220    6.6207 O   0  5  0  0  0  0  0  0  0  0  0  0
   11.8298  -12.6875    5.8708 C   0  0  0  0  0  0  0  0  0  0  0  0
   11.4195  -11.4582    5.3638 C   0  0  0  0  0  0  0  0  0  0  0  0
   12.1563  -10.3753    5.6587 F   0  0  0  0  0  0  0  0  0  0  0  0
    8.8204   -9.3760    4.4487 C   0  0  0  0  0  0  0  0  0  0  0  0
    8.2894   -8.1373    4.0991 N   0  0  0  0  0  0  0  0  0  0  0  0
    7.2362   -7.9680    4.8631 C   0  0  0  0  0  0  0  0  0  0  0  0
    6.2960   -6.7901    4.9408 C   0  0  0  0  0  0  0  0  0  0  0  0
    5.1610   -6.8017    5.9018 C   0  0  0  0  0  0  0  0  0  0  0  0
    5.3806   -6.7009    7.2835 C   0  0  0  0  0  0  0  0  0  0  0  0
    6.6303   -6.5782    7.7564 F   0  0  0  0  0  0  0  0  0  0  0  0
    4.3309   -6.7614    8.1949 C   0  0  0  0  0  0  0  0  0  0  0  0
    3.0271   -6.9064    7.7174 C   0  0  0  0  0  0  0  0  0  0  0  0
    1.6666   -6.9548    8.9049 S   0  0  0  0  0  0  0  0  0  0  0  0
    1.7959   -8.3031    9.4449 O   0  0  0  0  0  0  0  0  0  0  0  0
    2.0115   -5.8667    9.8148 O   0  0  0  0  0  0  0  0  0  0  0  0
    0.4892   -6.7166    8.0751 O   0  5  0  0  0  0  0  0  0  0  0  0
    2.7687   -6.9862    6.3494 C   0  0  0  0  0  0  0  0  0  0  0  0
    3.8373   -6.9449    5.4588 C   0  0  0  0  0  0  0  0  0  0  0  0
    3.5739   -7.0423    4.1465 F   0  0  0  0  0  0  0  0  0  0  0  0
    6.4910   -5.7267    4.1347 C   0  0  0  0  0  0  0  0  0  0  0  0
    5.6837   -4.5070    4.1125 C   0  0  0  0  0  0  0  0  0  0  0  0
    6.1500   -3.6823    3.1564 C   0  0  0  0  0  0  0  0  0  0  0  0
    7.2973   -4.3135    2.5070 C   0  0  0  0  0  0  0  0  0  0  0  0
    7.4393   -5.5117    3.1634 N   0  0  0  0  0  0  0  0  0  0  0  0
    6.9638   -9.0988    5.7641 C   0  0  0  0  0  0  0  0  0  0  0  0
    7.9767   -9.9120    5.4957 C   0  0  0  0  0  0  0  0  0  0  0  0
   10.8171   -4.8010   -0.4825 C   0  0  0  0  0  0  0  0  0  0  0  0
    9.8854   -3.9032   -0.2007 C   0  0  0  0  0  0  0  0  0  0  0  0
    6.9518   -2.3768   -0.2820 C   0  0  0  0  0  0  0  0  0  0  0  0
    6.8441   -1.1569   -0.9567 C   0  0  0  0  0  0  0  0  0  0  0  0
    5.3998    0.6359    1.9792 H   0  0  0  0  0  0  0  0  0  0  0  0
    4.8840    1.1178    0.3194 H   0  0  0  0  0  0  0  0  0  0  0  0
    0.6770    1.2205   -0.2348 H   0  0  0  0  0  0  0  0  0  0  0  0
    0.8235    1.3843    2.6547 H   0  0  0  0  0  0  0  0  0  0  0  0
   -1.0089    2.9550    0.8420 H   0  0  0  0  0  0  0  0  0  0  0  0
    0.3780    3.6134    1.6874 H   0  0  0  0  0  0  0  0  0  0  0  0
   -1.7408    4.0523    2.8711 H   0  0  0  0  0  0  0  0  0  0  0  0
   -0.6183    3.0760    3.8141 H   0  0  0  0  0  0  0  0  0  0  0  0
   -3.0349    2.1260    2.3232 H   0  0  0  0  0  0  0  0  0  0  0  0
   -2.7582    2.1268    4.0723 H   0  0  0  0  0  0  0  0  0  0  0  0
   -2.5270   -0.1037    2.9974 H   0  0  0  0  0  0  0  0  0  0  0  0
   -1.1113    0.4564    3.8938 H   0  0  0  0  0  0  0  0  0  0  0  0
   -0.3952   -0.5568    1.8243 H   0  0  0  0  0  0  0  0  0  0  0  0
   -1.4530    0.4969    0.9135 H   0  0  0  0  0  0  0  0  0  0  0  0
    2.1775    2.9807    2.5720 H   0  0  0  0  0  0  0  0  0  0  0  0
    3.8081    3.3132    2.8180 H   0  0  0  0  0  0  0  0  0  0  0  0
    3.8681    0.7899    6.4045 H   0  0  0  0  0  0  0  0  0  0  0  0
    3.3583    1.6567    8.6209 H   0  0  0  0  0  0  0  0  0  0  0  0
    1.1534    4.7998    6.8658 H   0  0  0  0  0  0  0  0  0  0  0  0
    1.7288    3.9689    4.6525 H   0  0  0  0  0  0  0  0  0  0  0  0
    4.6795    4.4175   -1.0956 H   0  0  0  0  0  0  0  0  0  0  0  0
    4.1090    2.8089   -0.6009 H   0  0  0  0  0  0  0  0  0  0  0  0
    6.6016    3.3602   -2.1579 H   0  0  0  0  0  0  0  0  0  0  0  0
    5.0828    2.7410   -2.8054 H   0  0  0  0  0  0  0  0  0  0  0  0
    8.5885    0.7577    1.1823 H   0  0  0  0  0  0  0  0  0  0  0  0
    8.7504   -1.3549    2.3647 H   0  0  0  0  0  0  0  0  0  0  0  0
   15.6159   -5.3555   -1.3021 H   0  0  0  0  0  0  0  0  0  0  0  0
   13.6729   -8.3917   -3.4901 H   0  0  0  0  0  0  0  0  0  0  0  0
   13.2306   -9.3397    0.7972 H   0  0  0  0  0  0  0  0  0  0  0  0
   12.2864  -10.9790    2.5928 H   0  0  0  0  0  0  0  0  0  0  0  0
    9.8182   -7.6585    2.4368 H   0  0  0  0  0  0  0  0  0  0  0  0
    9.3812  -14.5870    4.5685 H   0  0  0  0  0  0  0  0  0  0  0  0
   12.6792  -12.7575    6.4528 H   0  0  0  0  0  0  0  0  0  0  0  0
    4.5135   -6.7000    9.2088 H   0  0  0  0  0  0  0  0  0  0  0  0
    1.8006   -7.0745    6.0030 H   0  0  0  0  0  0  0  0  0  0  0  0
    4.8826   -4.3098    4.7325 H   0  0  0  0  0  0  0  0  0  0  0  0
    5.7611   -2.7559    2.9205 H   0  0  0  0  0  0  0  0  0  0  0  0
    8.1540   -6.1566    2.9572 H   0  0  0  0  0  0  0  0  0  0  0  0
    6.1868   -9.2261    6.4313 H   0  0  0  0  0  0  0  0  0  0  0  0
    8.1422  -10.8121    5.9726 H   0  0  0  0  0  0  0  0  0  0  0  0
   11.5038   -4.7090   -1.2474 H   0  0  0  0  0  0  0  0  0  0  0  0
    9.7036   -2.9914   -0.6486 H   0  0  0  0  0  0  0  0  0  0  0  0
    6.4924   -3.2177   -0.6652 H   0  0  0  0  0  0  0  0  0  0  0  0
    6.3091   -1.0972   -1.8372 H   0  0  0  0  0  0  0  0  0  0  0  0
  1  2  2  0  0  0  0
  2  3  1  0  0  0  0
  2 27  1  0  0  0  0
  3 99  1  0  0  0  0
  3100  1  0  0  0  0
  4 14  1  0  0  0  0
  4 26  1  0  0  0  0
  4  5  1  6  0  0  0
  4  3  1  0  0  0  0
  5  6  2  0  0  0  0
  5  7  1  0  0  0  0
  7  8  1  0  0  0  0
  7101  1  0  0  0  0
  8  9  1  0  0  0  0
  8 13  1  0  0  0  0
  8102  1  0  0  0  0
  9 10  1  0  0  0  0
  9103  1  0  0  0  0
  9104  1  0  0  0  0
 10 11  1  0  0  0  0
 10105  1  0  0  0  0
 10106  1  0  0  0  0
 11 12  1  0  0  0  0
 11107  1  0  0  0  0
 11108  1  0  0  0  0
 12 13  1  0  0  0  0
 12109  1  0  0  0  0
 12110  1  0  0  0  0
 13111  1  0  0  0  0
 13112  1  0  0  0  0
 14 15  1  0  0  0  0
 14113  1  0  0  0  0
 14114  1  0  0  0  0
 15 16  1  0  0  0  0
 15 25  2  0  0  0  0
 16 17  1  0  0  0  0
 16 24  2  0  0  0  0
 17 18  2  0  0  0  0
 17115  1  0  0  0  0
 18 19  1  0  0  0  0
 18116  1  0  0  0  0
 19 20  1  0  0  0  0
 19 23  2  0  0  0  0
 20 21  2  0  0  0  0
 20 22  1  0  0  0  0
 23 24  1  0  0  0  0
 23117  1  0  0  0  0
 24118  1  0  0  0  0
 25 26  1  0  0  0  0
 27 28  1  0  0  0  0
 28 29  1  0  0  0  0
 28119  1  0  0  0  0
 28120  1  0  0  0  0
 29 30  1  0  0  0  0
 29121  1  0  0  0  0
 29122  1  0  0  0  0
 30 31  1  0  0  0  0
 31 32  2  0  0  0  0
 31 33  1  0  0  0  0
 33 34  1  0  0  0  0
 33 98  2  0  0  0  0
 34 35  2  0  0  0  0
 34123  1  0  0  0  0
 35 36  1  0  0  0  0
 35124  1  0  0  0  0
 36 37  1  0  0  0  0
 36 97  2  0  0  0  0
 37 38  1  0  0  0  0
 37 91  2  0  0  0  0
 38 39  2  0  0  0  0
 38 96  1  0  0  0  0
 39 40  1  0  0  0  0
 40 41  2  0  0  0  0
 40 95  1  0  0  0  0
 41 42  1  0  0  0  0
 41 54  1  0  0  0  0
 42 43  1  0  0  0  0
 42 52  2  0  0  0  0
 43 44  1  0  0  0  0
 43 45  2  0  0  0  0
 45 46  1  0  0  0  0
 45125  1  0  0  0  0
 46 47  1  0  0  0  0
 46 51  2  0  0  0  0
 47 48  2  0  0  0  0
 47 49  2  0  0  0  0
 47 50  1  0  0  0  0
 51 52  1  0  0  0  0
 51126  1  0  0  0  0
 52 53  1  0  0  0  0
 54 55  2  0  0  0  0
 54 58  1  0  0  0  0
 55 56  1  0  0  0  0
 55127  1  0  0  0  0
 56 57  2  0  0  0  0
 56128  1  0  0  0  0
 57 58  1  0  0  0  0
 57 59  1  0  0  0  0
 58129  1  0  0  0  0
 59 60  1  0  0  0  0
 59 72  2  0  0  0  0
 60 61  1  0  0  0  0
 60 70  2  0  0  0  0
 61 62  1  0  0  0  0
 61 63  2  0  0  0  0
 63 64  1  0  0  0  0
 63130  1  0  0  0  0
 64 65  1  0  0  0  0
 64 69  2  0  0  0  0
 65 66  2  0  0  0  0
 65 67  2  0  0  0  0
 65 68  1  0  0  0  0
 69 70  1  0  0  0  0
 69131  1  0  0  0  0
 70 71  1  0  0  0  0
 72 73  1  0  0  0  0
 72 94  1  0  0  0  0
 73 74  2  0  0  0  0
 74 75  1  0  0  0  0
 74 93  1  0  0  0  0
 75 76  1  0  0  0  0
 75 88  2  0  0  0  0
 76 77  1  0  0  0  0
 76 86  2  0  0  0  0
 77 78  1  0  0  0  0
 77 79  2  0  0  0  0
 79 80  1  0  0  0  0
 79132  1  0  0  0  0
 80 81  1  0  0  0  0
 80 85  2  0  0  0  0
 81 82  2  0  0  0  0
 81 83  2  0  0  0  0
 81 84  1  0  0  0  0
 85 86  1  0  0  0  0
 85133  1  0  0  0  0
 86 87  1  0  0  0  0
 88 89  1  0  0  0  0
 88 92  1  0  0  0  0
 89 90  2  0  0  0  0
 89134  1  0  0  0  0
 90 91  1  0  0  0  0
 90135  1  0  0  0  0
 91 92  1  0  0  0  0
 92136  1  0  0  0  0
 93 94  2  0  0  0  0
 93137  1  0  0  0  0
 94138  1  0  0  0  0
 95 96  2  0  0  0  0
 95139  1  0  0  0  0
 96140  1  0  0  0  0
 97 98  1  0  0  0  0
 97141  1  0  0  0  0
 98142  1  0  0  0  0
M  CHG  5  20   1  22  -1  50  -1  68  -1  84  -1
M  END
$$$$
