4_3_4030
 OpenBabel04152301373D

126136  0  0  1  0  0  0  0  0999 V2000
    2.3458   -0.7693   -2.0168 O   0  0  0  0  0  0  0  0  0  0  0  0
    3.1190   -0.3580   -1.1564 C   0  0  0  0  0  0  0  0  0  0  0  0
    3.0640    0.9385   -0.7653 O   0  0  0  0  0  0  0  0  0  0  0  0
    4.1234    1.7281   -0.2030 C   0  0  0  0  0  0  0  0  0  0  0  0
    4.1252    1.8403    1.3262 C   0  0  0  0  0  0  0  0  0  0  0  0
    3.5501    0.7288    2.0303 O   0  0  0  0  0  0  0  0  0  0  0  0
    2.1951    0.7982    2.1861 C   0  0  0  0  0  0  0  0  0  0  0  0
    1.5132    1.6863    1.6854 O   0  0  0  0  0  0  0  0  0  0  0  0
    1.6259   -0.3196    3.0873 C   0  0  2  0  0  0  0  0  0  0  0  0
    2.5408   -1.5122    3.3092 C   0  0  0  0  0  0  0  0  0  0  0  0
    1.6614   -2.7295    3.1190 C   0  0  0  0  0  0  0  0  0  0  0  0
    0.6143   -2.2316    2.1672 C   0  0  0  0  0  0  0  0  0  0  0  0
    0.0387   -2.9369    1.3556 O   0  0  0  0  0  0  0  0  0  0  0  0
    0.4586   -0.8624    2.4116 N   0  0  0  0  0  0  0  0  0  0  0  0
   -0.7225   -0.1418    2.4648 C   0  0  0  0  0  0  0  0  0  0  0  0
   -0.8818    0.8271    3.2080 O   0  0  0  0  0  0  0  0  0  0  0  0
   -1.8483   -0.5394    1.5965 C   0  0  0  0  0  0  0  0  0  0  0  0
   -2.5304   -1.6781    1.7819 C   0  0  0  0  0  0  0  0  0  0  0  0
   -3.7334   -2.0852    1.0378 C   0  0  0  0  0  0  0  0  0  0  0  0
   -4.3668   -3.2811    1.4065 C   0  0  0  0  0  0  0  0  0  0  0  0
   -5.5389   -3.6977    0.7712 C   0  0  0  0  0  0  0  0  0  0  0  0
   -6.0910   -2.9262   -0.2475 C   0  0  0  0  0  0  0  0  0  0  0  0
   -5.4627   -1.7481   -0.6410 C   0  0  0  0  0  0  0  0  0  0  0  0
   -4.2892   -1.3331   -0.0060 C   0  0  0  0  0  0  0  0  0  0  0  0
    3.9326   -1.3515   -0.3988 C   0  0  0  0  0  0  0  0  0  0  0  0
    5.2541   -1.1636    0.0133 C   0  0  0  0  0  0  0  0  0  0  0  0
    5.9020   -2.1211    0.8004 C   0  0  0  0  0  0  0  0  0  0  0  0
    5.2544   -3.3072    1.1545 C   0  0  0  0  0  0  0  0  0  0  0  0
    5.9578   -4.3133    1.9853 C   0  0  0  0  0  0  0  0  0  0  0  0
    6.4903   -5.5515    1.3284 C   0  0  0  0  0  0  0  0  0  0  0  0
    7.2248   -6.5010    1.8430 N   0  0  0  0  0  0  0  0  0  0  0  0
    7.5181   -7.3546    0.7890 C   0  0  0  0  0  0  0  0  0  0  0  0
    8.3636   -8.4106    0.7716 C   0  0  0  0  0  0  0  0  0  0  0  0
    8.6051   -9.0542   -0.5615 C   0  0  0  0  0  0  0  0  0  0  0  0
    9.3682   -8.3993   -1.5439 C   0  0  0  0  0  0  0  0  0  0  0  0
    9.8952   -7.1894   -1.2953 F   0  0  0  0  0  0  0  0  0  0  0  0
    9.5483   -8.9457   -2.8083 C   0  0  0  0  0  0  0  0  0  0  0  0
    8.9735  -10.1839   -3.0965 C   0  0  0  0  0  0  0  0  0  0  0  0
    9.1936  -10.8655   -4.7532 S   0  0  0  0  0  0  0  0  0  0  0  0
    8.3036  -10.0148   -5.5374 O   0  0  0  0  0  0  0  0  0  0  0  0
   10.6214  -10.6704   -4.9839 O   0  0  0  0  0  0  0  0  0  0  0  0
    8.7688  -12.2541   -4.6079 O   0  5  0  0  0  0  0  0  0  0  0  0
    8.2405  -10.8796   -2.1340 C   0  0  0  0  0  0  0  0  0  0  0  0
    8.0555  -10.3036   -0.8798 C   0  0  0  0  0  0  0  0  0  0  0  0
    7.3118  -10.9645    0.0208 F   0  0  0  0  0  0  0  0  0  0  0  0
    9.0491   -8.9067    1.9320 C   0  0  0  0  0  0  0  0  0  0  0  0
    9.9171   -9.9781    2.0321 C   0  0  0  0  0  0  0  0  0  0  0  0
   10.3014  -10.1010    3.3728 C   0  0  0  0  0  0  0  0  0  0  0  0
    9.6984   -9.0861    4.0999 C   0  0  0  0  0  0  0  0  0  0  0  0
    8.9301   -8.3646    3.2041 N   0  0  0  0  0  0  0  0  0  0  0  0
    9.8133   -8.8019    5.5082 C   0  0  0  0  0  0  0  0  0  0  0  0
   10.7317   -9.6698    6.3182 C   0  0  0  0  0  0  0  0  0  0  0  0
   10.2364  -10.6286    7.2141 C   0  0  0  0  0  0  0  0  0  0  0  0
    8.9138  -10.7534    7.4073 F   0  0  0  0  0  0  0  0  0  0  0  0
   11.0913  -11.4473    7.9425 C   0  0  0  0  0  0  0  0  0  0  0  0
   12.4697  -11.3252    7.7554 C   0  0  0  0  0  0  0  0  0  0  0  0
   13.5700  -12.4222    8.6732 S   0  0  0  0  0  0  0  0  0  0  0  0
   13.5742  -11.7966    9.9911 O   0  0  0  0  0  0  0  0  0  0  0  0
   12.8817  -13.7063    8.5824 O   0  0  0  0  0  0  0  0  0  0  0  0
   14.8250  -12.3383    7.9321 O   0  5  0  0  0  0  0  0  0  0  0  0
   12.9955  -10.3974    6.8567 C   0  0  0  0  0  0  0  0  0  0  0  0
   12.1230   -9.5705    6.1586 C   0  0  0  0  0  0  0  0  0  0  0  0
   12.6444   -8.6732    5.3069 F   0  0  0  0  0  0  0  0  0  0  0  0
    9.1727   -7.8017    6.1623 C   0  0  0  0  0  0  0  0  0  0  0  0
    8.3152   -6.8311    5.6582 N   0  0  0  0  0  0  0  0  0  0  0  0
    7.9704   -6.0901    6.6851 C   0  0  0  0  0  0  0  0  0  0  0  0
    7.1270   -4.8426    6.7060 C   0  0  0  0  0  0  0  0  0  0  0  0
    6.8491   -4.1367    7.9873 C   0  0  0  0  0  0  0  0  0  0  0  0
    7.8652   -3.4789    8.6966 C   0  0  0  0  0  0  0  0  0  0  0  0
    9.1076   -3.4275    8.1927 F   0  0  0  0  0  0  0  0  0  0  0  0
    7.6340   -2.9098    9.9458 C   0  0  0  0  0  0  0  0  0  0  0  0
    6.3515   -2.9752   10.4930 C   0  0  0  0  0  0  0  0  0  0  0  0
    6.0664   -2.2515   12.1242 S   0  0  0  0  0  0  0  0  0  0  0  0
    6.7278   -3.2183   12.9925 O   0  0  0  0  0  0  0  0  0  0  0  0
    6.7187   -0.9518   12.0000 O   0  0  0  0  0  0  0  0  0  0  0  0
    4.6104   -2.2074   12.2198 O   0  5  0  0  0  0  0  0  0  0  0  0
    5.3048   -3.5774    9.7961 C   0  0  0  0  0  0  0  0  0  0  0  0
    5.5662   -4.1571    8.5571 C   0  0  0  0  0  0  0  0  0  0  0  0
    4.5520   -4.7510    7.9090 F   0  0  0  0  0  0  0  0  0  0  0  0
    6.6665   -4.3619    5.5349 C   0  0  0  0  0  0  0  0  0  0  0  0
    5.9719   -3.0931    5.3570 C   0  0  0  0  0  0  0  0  0  0  0  0
    5.6918   -2.9318    4.0524 C   0  0  0  0  0  0  0  0  0  0  0  0
    6.1408   -4.1073    3.3059 C   0  0  0  0  0  0  0  0  0  0  0  0
    6.7444   -4.8838    4.2630 N   0  0  0  0  0  0  0  0  0  0  0  0
    8.5287   -6.5393    7.9674 C   0  0  0  0  0  0  0  0  0  0  0  0
    9.2923   -7.5533    7.5850 C   0  0  0  0  0  0  0  0  0  0  0  0
    6.7971   -6.8710   -0.3676 C   0  0  0  0  0  0  0  0  0  0  0  0
    6.1756   -5.7334   -0.0983 C   0  0  0  0  0  0  0  0  0  0  0  0
    3.9670   -3.5472    0.6580 C   0  0  0  0  0  0  0  0  0  0  0  0
    3.3137   -2.5795   -0.1134 C   0  0  0  0  0  0  0  0  0  0  0  0
    4.0468    2.7165   -0.6056 H   0  0  0  0  0  0  0  0  0  0  0  0
    5.0321    1.2255   -0.4610 H   0  0  0  0  0  0  0  0  0  0  0  0
    3.5755    2.7188    1.5925 H   0  0  0  0  0  0  0  0  0  0  0  0
    5.1547    1.8698    1.6164 H   0  0  0  0  0  0  0  0  0  0  0  0
    1.4491    0.1383    4.0380 H   0  0  0  0  0  0  0  0  0  0  0  0
    2.9472   -1.4941    4.2989 H   0  0  0  0  0  0  0  0  0  0  0  0
    3.3710   -1.5098    2.6341 H   0  0  0  0  0  0  0  0  0  0  0  0
    1.2251   -3.0393    4.0456 H   0  0  0  0  0  0  0  0  0  0  0  0
    2.1921   -3.5855    2.7579 H   0  0  0  0  0  0  0  0  0  0  0  0
   -2.1199    0.0820    0.8186 H   0  0  0  0  0  0  0  0  0  0  0  0
   -2.1828   -2.3241    2.5077 H   0  0  0  0  0  0  0  0  0  0  0  0
   -3.9612   -3.8612    2.1575 H   0  0  0  0  0  0  0  0  0  0  0  0
   -5.9958   -4.5778    1.0571 H   0  0  0  0  0  0  0  0  0  0  0  0
   -6.9635   -3.2268   -0.7096 H   0  0  0  0  0  0  0  0  0  0  0  0
   -5.8644   -1.1800   -1.4032 H   0  0  0  0  0  0  0  0  0  0  0  0
   -3.8261   -0.4621   -0.3094 H   0  0  0  0  0  0  0  0  0  0  0  0
    5.7585   -0.3078   -0.2665 H   0  0  0  0  0  0  0  0  0  0  0  0
    6.8674   -1.9498    1.1226 H   0  0  0  0  0  0  0  0  0  0  0  0
   10.0984   -8.4439   -3.5229 H   0  0  0  0  0  0  0  0  0  0  0  0
    7.8416  -11.8069   -2.3485 H   0  0  0  0  0  0  0  0  0  0  0  0
   10.2275  -10.5817    1.2547 H   0  0  0  0  0  0  0  0  0  0  0  0
   10.9285  -10.8257    3.7557 H   0  0  0  0  0  0  0  0  0  0  0  0
    8.3797   -7.5816    3.4349 H   0  0  0  0  0  0  0  0  0  0  0  0
   10.7128  -12.1355    8.6120 H   0  0  0  0  0  0  0  0  0  0  0  0
   14.0149  -10.3259    6.7124 H   0  0  0  0  0  0  0  0  0  0  0  0
    8.3995   -2.4463   10.4598 H   0  0  0  0  0  0  0  0  0  0  0  0
    4.3519   -3.5933   10.1919 H   0  0  0  0  0  0  0  0  0  0  0  0
    5.7342   -2.4278    6.1092 H   0  0  0  0  0  0  0  0  0  0  0  0
    5.2307   -2.1055    3.6404 H   0  0  0  0  0  0  0  0  0  0  0  0
    7.1923   -5.7364    4.0588 H   0  0  0  0  0  0  0  0  0  0  0  0
    8.3688   -6.1645    8.9155 H   0  0  0  0  0  0  0  0  0  0  0  0
    9.8962   -8.0975    8.2208 H   0  0  0  0  0  0  0  0  0  0  0  0
    6.7705   -7.3492   -1.2817 H   0  0  0  0  0  0  0  0  0  0  0  0
    5.6172   -5.1321   -0.7241 H   0  0  0  0  0  0  0  0  0  0  0  0
    3.4973   -4.4431    0.8623 H   0  0  0  0  0  0  0  0  0  0  0  0
    2.3667   -2.7703   -0.4766 H   0  0  0  0  0  0  0  0  0  0  0  0
  1  2  2  0  0  0  0
  2  3  1  0  0  0  0
  2 25  1  0  0  0  0
  3  4  1  0  0  0  0
  4  5  1  0  0  0  0
  4 91  1  0  0  0  0
  4 92  1  0  0  0  0
  5  6  1  0  0  0  0
  5 93  1  0  0  0  0
  5 94  1  0  0  0  0
  6  7  1  0  0  0  0
  7  8  2  0  0  0  0
  7  9  1  0  0  0  0
  9 10  1  0  0  0  0
  9 14  1  0  0  0  0
  9 95  1  1  0  0  0
 10 11  1  0  0  0  0
 10 96  1  0  0  0  0
 10 97  1  0  0  0  0
 11 12  1  0  0  0  0
 11 98  1  0  0  0  0
 11 99  1  0  0  0  0
 12 13  2  0  0  0  0
 12 14  1  0  0  0  0
 14 15  1  0  0  0  0
 15 16  2  0  0  0  0
 15 17  1  0  0  0  0
 17 18  2  0  0  0  0
 17100  1  0  0  0  0
 18 19  1  0  0  0  0
 18101  1  0  0  0  0
 19 20  1  0  0  0  0
 19 24  2  0  0  0  0
 20 21  2  0  0  0  0
 20102  1  0  0  0  0
 21 22  1  0  0  0  0
 21103  1  0  0  0  0
 22 23  2  0  0  0  0
 22104  1  0  0  0  0
 23 24  1  0  0  0  0
 23105  1  0  0  0  0
 24106  1  0  0  0  0
 25 26  1  0  0  0  0
 25 90  2  0  0  0  0
 26 27  2  0  0  0  0
 26107  1  0  0  0  0
 27 28  1  0  0  0  0
 27108  1  0  0  0  0
 28 29  1  0  0  0  0
 28 89  2  0  0  0  0
 29 30  1  0  0  0  0
 29 83  2  0  0  0  0
 30 31  2  0  0  0  0
 30 88  1  0  0  0  0
 31 32  1  0  0  0  0
 32 33  2  0  0  0  0
 32 87  1  0  0  0  0
 33 34  1  0  0  0  0
 33 46  1  0  0  0  0
 34 35  1  0  0  0  0
 34 44  2  0  0  0  0
 35 36  1  0  0  0  0
 35 37  2  0  0  0  0
 37 38  1  0  0  0  0
 37109  1  0  0  0  0
 38 39  1  0  0  0  0
 38 43  2  0  0  0  0
 39 40  2  0  0  0  0
 39 41  2  0  0  0  0
 39 42  1  0  0  0  0
 43 44  1  0  0  0  0
 43110  1  0  0  0  0
 44 45  1  0  0  0  0
 46 47  2  0  0  0  0
 46 50  1  0  0  0  0
 47 48  1  0  0  0  0
 47111  1  0  0  0  0
 48 49  2  0  0  0  0
 48112  1  0  0  0  0
 49 50  1  0  0  0  0
 49 51  1  0  0  0  0
 50113  1  0  0  0  0
 51 52  1  0  0  0  0
 51 64  2  0  0  0  0
 52 53  1  0  0  0  0
 52 62  2  0  0  0  0
 53 54  1  0  0  0  0
 53 55  2  0  0  0  0
 55 56  1  0  0  0  0
 55114  1  0  0  0  0
 56 57  1  0  0  0  0
 56 61  2  0  0  0  0
 57 58  2  0  0  0  0
 57 59  2  0  0  0  0
 57 60  1  0  0  0  0
 61 62  1  0  0  0  0
 61115  1  0  0  0  0
 62 63  1  0  0  0  0
 64 65  1  0  0  0  0
 64 86  1  0  0  0  0
 65 66  2  0  0  0  0
 66 67  1  0  0  0  0
 66 85  1  0  0  0  0
 67 68  1  0  0  0  0
 67 80  2  0  0  0  0
 68 69  1  0  0  0  0
 68 78  2  0  0  0  0
 69 70  1  0  0  0  0
 69 71  2  0  0  0  0
 71 72  1  0  0  0  0
 71116  1  0  0  0  0
 72 73  1  0  0  0  0
 72 77  2  0  0  0  0
 73 74  2  0  0  0  0
 73 75  2  0  0  0  0
 73 76  1  0  0  0  0
 77 78  1  0  0  0  0
 77117  1  0  0  0  0
 78 79  1  0  0  0  0
 80 81  1  0  0  0  0
 80 84  1  0  0  0  0
 81 82  2  0  0  0  0
 81118  1  0  0  0  0
 82 83  1  0  0  0  0
 82119  1  0  0  0  0
 83 84  1  0  0  0  0
 84120  1  0  0  0  0
 85 86  2  0  0  0  0
 85121  1  0  0  0  0
 86122  1  0  0  0  0
 87 88  2  0  0  0  0
 87123  1  0  0  0  0
 88124  1  0  0  0  0
 89 90  1  0  0  0  0
 89125  1  0  0  0  0
 90126  1  0  0  0  0
M  CHG  3  42  -1  60  -1  76  -1
M  END
$$$$
