4_3_7368
 OpenBabel04152301373D

139149  0  0  1  0  0  0  0  0999 V2000
    8.3239   12.7645   -4.4269 C   0  0  0  0  0  0  0  0  0  0  0  0
    7.3481   12.5117   -5.4284 O   0  0  0  0  0  0  0  0  0  0  0  0
    6.2199   11.7831   -4.9484 C   0  0  0  0  0  0  0  0  0  0  0  0
    6.5145   10.2800   -4.7936 C   0  0  2  0  0  0  0  0  0  0  0  0
    6.8082    9.5985   -6.1458 C   0  0  0  0  0  0  0  0  0  0  0  0
    5.5486    9.3493   -6.9826 C   0  0  0  0  0  0  0  0  0  0  0  0
    4.5207    8.6680   -6.1850 N   0  0  0  0  0  0  0  0  0  0  0  0
    3.9916    7.5103   -6.6757 C   0  0  0  0  0  0  0  0  0  0  0  0
    4.2642    7.0978   -7.8069 O   0  0  0  0  0  0  0  0  0  0  0  0
    3.1409    6.7301   -5.9890 N   0  0  0  0  0  0  0  0  0  0  0  0
    2.6446    6.6064   -4.6260 C   0  0  0  0  0  0  0  0  0  0  0  0
    1.1419    6.9317   -4.4510 C   0  0  1  0  0  0  0  0  0  0  0  0
    0.6723    8.3349   -4.7848 C   0  0  0  0  0  0  0  0  0  0  0  0
    0.4103    8.2720   -6.2667 C   0  0  0  0  0  0  0  0  0  0  0  0
   -0.0433    6.8305   -6.4673 C   0  0  2  0  0  0  0  0  0  0  0  0
   -1.5403    6.6647   -6.7499 C   0  0  0  0  0  0  0  0  0  0  0  0
   -1.9985    5.7400   -7.4114 O   0  0  0  0  0  0  0  0  0  0  0  0
   -2.2904    7.6483   -6.1775 O   0  0  0  0  0  0  0  0  0  0  0  0
   -3.6965    7.6273   -6.4812 C   0  0  0  0  0  0  0  0  0  0  0  0
   -4.0414    8.5986   -7.6144 C   0  0  0  0  0  0  0  0  0  0  0  0
   -3.4933    8.1707   -8.8748 O   0  0  0  0  0  0  0  0  0  0  0  0
   -2.3090    8.7273   -9.2165 C   0  0  0  0  0  0  0  0  0  0  0  0
   -1.6794    9.5662   -8.5874 O   0  0  0  0  0  0  0  0  0  0  0  0
   -1.7906    8.0812  -10.4297 C   0  0  0  0  0  0  0  0  0  0  0  0
   -0.6161    7.3293  -10.3335 C   0  0  0  0  0  0  0  0  0  0  0  0
   -0.0730    6.7338  -11.4695 C   0  0  0  0  0  0  0  0  0  0  0  0
   -0.6968    6.8986  -12.7121 C   0  0  0  0  0  0  0  0  0  0  0  0
   -0.1210    6.2751  -13.9269 C   0  0  0  0  0  0  0  0  0  0  0  0
    0.5891    7.1248  -14.9394 C   0  0  0  0  0  0  0  0  0  0  0  0
    1.0265    6.8000  -16.1276 N   0  0  0  0  0  0  0  0  0  0  0  0
    1.5729    7.9608  -16.6604 C   0  0  0  0  0  0  0  0  0  0  0  0
    2.1534    8.1373  -17.8708 C   0  0  0  0  0  0  0  0  0  0  0  0
    2.6093    9.5213  -18.2345 C   0  0  0  0  0  0  0  0  0  0  0  0
    3.7731   10.0857  -17.6920 C   0  0  0  0  0  0  0  0  0  0  0  0
    4.4844    9.4150  -16.7722 F   0  0  0  0  0  0  0  0  0  0  0  0
    4.2054   11.3554  -18.0638 C   0  0  0  0  0  0  0  0  0  0  0  0
    3.4707   12.0737  -19.0097 C   0  0  0  0  0  0  0  0  0  0  0  0
    4.0491   13.7143  -19.4943 S   0  0  0  0  0  0  0  0  0  0  0  0
    3.6746   14.5108  -18.3298 O   0  0  0  0  0  0  0  0  0  0  0  0
    5.4807   13.5009  -19.6813 O   0  0  0  0  0  0  0  0  0  0  0  0
    3.2967   13.9940  -20.7134 O   0  5  0  0  0  0  0  0  0  0  0  0
    2.3190   11.5363  -19.5827 C   0  0  0  0  0  0  0  0  0  0  0  0
    1.8948   10.2731  -19.1816 C   0  0  0  0  0  0  0  0  0  0  0  0
    0.7729    9.7795  -19.7288 F   0  0  0  0  0  0  0  0  0  0  0  0
    2.3341    7.0874  -18.8396 C   0  0  0  0  0  0  0  0  0  0  0  0
    2.9579    7.1533  -20.0732 C   0  0  0  0  0  0  0  0  0  0  0  0
    2.8499    5.8994  -20.6847 C   0  0  0  0  0  0  0  0  0  0  0  0
    2.1917    5.0428  -19.8165 C   0  0  0  0  0  0  0  0  0  0  0  0
    1.8866    5.7833  -18.6867 N   0  0  0  0  0  0  0  0  0  0  0  0
    1.8531    3.6554  -20.0121 C   0  0  0  0  0  0  0  0  0  0  0  0
    2.1892    3.0398  -21.3398 C   0  0  0  0  0  0  0  0  0  0  0  0
    1.2006    2.8111  -22.3085 C   0  0  0  0  0  0  0  0  0  0  0  0
   -0.0875    3.0702  -22.0336 F   0  0  0  0  0  0  0  0  0  0  0  0
    1.5194    2.3023  -23.5631 C   0  0  0  0  0  0  0  0  0  0  0  0
    2.8553    2.0301  -23.8656 C   0  0  0  0  0  0  0  0  0  0  0  0
    3.2647    1.4248  -25.5168 S   0  0  0  0  0  0  0  0  0  0  0  0
    2.8425    0.0308  -25.4323 O   0  0  0  0  0  0  0  0  0  0  0  0
    2.4537    2.2816  -26.3765 O   0  0  0  0  0  0  0  0  0  0  0  0
    4.7057    1.6405  -25.6093 O   0  5  0  0  0  0  0  0  0  0  0  0
    3.8641    2.2524  -22.9286 C   0  0  0  0  0  0  0  0  0  0  0  0
    3.5201    2.7428  -21.6730 C   0  0  0  0  0  0  0  0  0  0  0  0
    4.5026    2.9509  -20.7822 F   0  0  0  0  0  0  0  0  0  0  0  0
    1.2634    2.8597  -19.0867 C   0  0  0  0  0  0  0  0  0  0  0  0
    0.8568    3.1732  -17.7951 N   0  0  0  0  0  0  0  0  0  0  0  0
    0.3280    2.0755  -17.3087 C   0  0  0  0  0  0  0  0  0  0  0  0
   -0.2775    1.8412  -15.9516 C   0  0  0  0  0  0  0  0  0  0  0  0
   -0.8696    0.5251  -15.5961 C   0  0  0  0  0  0  0  0  0  0  0  0
   -0.0616   -0.5948  -15.3570 C   0  0  0  0  0  0  0  0  0  0  0  0
    1.2718   -0.4958  -15.4682 F   0  0  0  0  0  0  0  0  0  0  0  0
   -0.6099   -1.8299  -15.0241 C   0  0  0  0  0  0  0  0  0  0  0  0
   -1.9967   -1.9477  -14.9101 C   0  0  0  0  0  0  0  0  0  0  0  0
   -2.7010   -3.5412  -14.4332 S   0  0  0  0  0  0  0  0  0  0  0  0
   -2.6148   -4.2855  -15.6842 O   0  0  0  0  0  0  0  0  0  0  0  0
   -1.7997   -3.9741  -13.3698 O   0  0  0  0  0  0  0  0  0  0  0  0
   -4.0498   -3.1928  -13.9962 O   0  5  0  0  0  0  0  0  0  0  0  0
   -2.8303   -0.8514  -15.1257 C   0  0  0  0  0  0  0  0  0  0  0  0
   -2.2599    0.3667  -15.4796 C   0  0  0  0  0  0  0  0  0  0  0  0
   -3.0762    1.4112  -15.6897 F   0  0  0  0  0  0  0  0  0  0  0  0
   -0.3250    2.8582  -15.0692 C   0  0  0  0  0  0  0  0  0  0  0  0
   -0.9174    2.7950  -13.7360 C   0  0  0  0  0  0  0  0  0  0  0  0
   -0.9101    4.0241  -13.1946 C   0  0  0  0  0  0  0  0  0  0  0  0
   -0.2676    4.9519  -14.1271 C   0  0  0  0  0  0  0  0  0  0  0  0
    0.0933    4.1623  -15.1896 N   0  0  0  0  0  0  0  0  0  0  0  0
    0.3319    0.9408  -18.2426 C   0  0  0  0  0  0  0  0  0  0  0  0
    0.9339    1.4656  -19.3020 C   0  0  0  0  0  0  0  0  0  0  0  0
    1.4100    9.0003  -15.6659 C   0  0  0  0  0  0  0  0  0  0  0  0
    0.8337    8.5276  -14.5684 C   0  0  0  0  0  0  0  0  0  0  0  0
   -1.8715    7.6668  -12.8019 C   0  0  0  0  0  0  0  0  0  0  0  0
   -2.4202    8.2614  -11.6620 C   0  0  0  0  0  0  0  0  0  0  0  0
    0.3628    6.0764   -5.3096 O   0  0  0  0  0  0  0  0  0  0  0  0
    4.1502    9.4092   -4.9941 C   0  0  0  0  0  0  0  0  0  0  0  0
    5.3565    9.5673   -4.0795 C   0  0  0  0  0  0  0  0  0  0  0  0
    9.1387   13.3118   -4.8529 H   0  0  0  0  0  0  0  0  0  0  0  0
    8.6836   11.8353   -4.0368 H   0  0  0  0  0  0  0  0  0  0  0  0
    7.8842   13.3367   -3.6369 H   0  0  0  0  0  0  0  0  0  0  0  0
    5.4124   11.9056   -5.6396 H   0  0  0  0  0  0  0  0  0  0  0  0
    5.9703   12.1679   -3.9817 H   0  0  0  0  0  0  0  0  0  0  0  0
    7.3973   10.1976   -4.1946 H   0  0  0  0  0  0  0  0  0  0  0  0
    7.2824    8.6581   -5.9568 H   0  0  0  0  0  0  0  0  0  0  0  0
    7.4360   10.2600   -6.7055 H   0  0  0  0  0  0  0  0  0  0  0  0
    5.8014    8.7391   -7.8244 H   0  0  0  0  0  0  0  0  0  0  0  0
    5.1613   10.2916   -7.3095 H   0  0  0  0  0  0  0  0  0  0  0  0
    2.7385    6.0478   -6.5737 H   0  0  0  0  0  0  0  0  0  0  0  0
    3.2044    7.2750   -4.0059 H   0  0  0  0  0  0  0  0  0  0  0  0
    2.7642    5.5785   -4.3538 H   0  0  0  0  0  0  0  0  0  0  0  0
    1.0051    6.7944   -3.3987 H   0  0  0  0  0  0  0  0  0  0  0  0
    1.4303    9.0559   -4.5603 H   0  0  0  0  0  0  0  0  0  0  0  0
   -0.1868    8.6331   -4.2210 H   0  0  0  0  0  0  0  0  0  0  0  0
    1.2999    8.4775   -6.8246 H   0  0  0  0  0  0  0  0  0  0  0  0
   -0.3063    8.9926   -6.6016 H   0  0  0  0  0  0  0  0  0  0  0  0
    0.4261    6.4599   -7.3546 H   0  0  0  0  0  0  0  0  0  0  0  0
   -4.2453    7.9056   -5.6058 H   0  0  0  0  0  0  0  0  0  0  0  0
   -3.9569    6.6384   -6.7962 H   0  0  0  0  0  0  0  0  0  0  0  0
   -3.6458    9.5636   -7.3751 H   0  0  0  0  0  0  0  0  0  0  0  0
   -5.1066    8.6308   -7.7103 H   0  0  0  0  0  0  0  0  0  0  0  0
   -0.1507    7.2153   -9.4195 H   0  0  0  0  0  0  0  0  0  0  0  0
    0.7890    6.1712  -11.3953 H   0  0  0  0  0  0  0  0  0  0  0  0
    5.0576   11.7607  -17.6460 H   0  0  0  0  0  0  0  0  0  0  0  0
    1.7898   12.0665  -20.2926 H   0  0  0  0  0  0  0  0  0  0  0  0
    3.4224    7.9836  -20.4730 H   0  0  0  0  0  0  0  0  0  0  0  0
    3.2010    5.6539  -21.6236 H   0  0  0  0  0  0  0  0  0  0  0  0
    1.4208    5.4355  -17.8922 H   0  0  0  0  0  0  0  0  0  0  0  0
    0.7791    2.1284  -24.2607 H   0  0  0  0  0  0  0  0  0  0  0  0
    4.8498    2.0563  -23.1629 H   0  0  0  0  0  0  0  0  0  0  0  0
   -0.0003   -2.6470  -14.8638 H   0  0  0  0  0  0  0  0  0  0  0  0
   -3.8533   -0.9421  -15.0244 H   0  0  0  0  0  0  0  0  0  0  0  0
   -1.2829    1.9430  -13.2827 H   0  0  0  0  0  0  0  0  0  0  0  0
   -1.2953    4.2741  -12.2704 H   0  0  0  0  0  0  0  0  0  0  0  0
    0.6023    4.4970  -15.9630 H   0  0  0  0  0  0  0  0  0  0  0  0
   -0.0369   -0.0138  -18.1093 H   0  0  0  0  0  0  0  0  0  0  0  0
    1.1412    0.9465  -20.1695 H   0  0  0  0  0  0  0  0  0  0  0  0
    1.7039    9.9812  -15.7941 H   0  0  0  0  0  0  0  0  0  0  0  0
    0.6145    9.0157  -13.6859 H   0  0  0  0  0  0  0  0  0  0  0  0
   -2.3321    7.7925  -13.7168 H   0  0  0  0  0  0  0  0  0  0  0  0
   -3.2807    8.8269  -11.7309 H   0  0  0  0  0  0  0  0  0  0  0  0
    3.3788    8.8806   -4.4741 H   0  0  0  0  0  0  0  0  0  0  0  0
    3.7985   10.3784   -5.2803 H   0  0  0  0  0  0  0  0  0  0  0  0
    5.0705   10.1410   -3.2228 H   0  0  0  0  0  0  0  0  0  0  0  0
    5.6892    8.5921   -3.7910 H   0  0  0  0  0  0  0  0  0  0  0  0
  1  2  1  0  0  0  0
  1 93  1  0  0  0  0
  1 94  1  0  0  0  0
  1 95  1  0  0  0  0
  2  3  1  0  0  0  0
  3  4  1  0  0  0  0
  3 96  1  0  0  0  0
  3 97  1  0  0  0  0
  4  5  1  0  0  0  0
  4 92  1  0  0  0  0
  4 98  1  1  0  0  0
  5  6  1  0  0  0  0
  5 99  1  0  0  0  0
  5100  1  0  0  0  0
  6  7  1  0  0  0  0
  6101  1  0  0  0  0
  6102  1  0  0  0  0
  7  8  1  0  0  0  0
  7 91  1  0  0  0  0
  8  9  2  0  0  0  0
  8 10  1  0  0  0  0
 10 11  1  0  0  0  0
 10103  1  0  0  0  0
 11104  1  0  0  0  0
 11105  1  0  0  0  0
 12 13  1  0  0  0  0
 12 90  1  0  0  0  0
 12 11  1  0  0  0  0
 12106  1  1  0  0  0
 13 14  1  0  0  0  0
 13107  1  0  0  0  0
 13108  1  0  0  0  0
 14 15  1  0  0  0  0
 14109  1  0  0  0  0
 14110  1  0  0  0  0
 15 16  1  0  0  0  0
 15 90  1  0  0  0  0
 15111  1  6  0  0  0
 16 17  2  0  0  0  0
 16 18  1  0  0  0  0
 18 19  1  0  0  0  0
 19 20  1  0  0  0  0
 19112  1  0  0  0  0
 19113  1  0  0  0  0
 20 21  1  0  0  0  0
 20114  1  0  0  0  0
 20115  1  0  0  0  0
 21 22  1  0  0  0  0
 22 23  2  0  0  0  0
 22 24  1  0  0  0  0
 24 25  1  0  0  0  0
 24 89  2  0  0  0  0
 25 26  2  0  0  0  0
 25116  1  0  0  0  0
 26 27  1  0  0  0  0
 26117  1  0  0  0  0
 27 28  1  0  0  0  0
 27 88  2  0  0  0  0
 28 29  1  0  0  0  0
 28 82  2  0  0  0  0
 29 30  2  0  0  0  0
 29 87  1  0  0  0  0
 30 31  1  0  0  0  0
 31 32  2  0  0  0  0
 31 86  1  0  0  0  0
 32 33  1  0  0  0  0
 32 45  1  0  0  0  0
 33 34  1  0  0  0  0
 33 43  2  0  0  0  0
 34 35  1  0  0  0  0
 34 36  2  0  0  0  0
 36 37  1  0  0  0  0
 36118  1  0  0  0  0
 37 38  1  0  0  0  0
 37 42  2  0  0  0  0
 38 39  2  0  0  0  0
 38 40  2  0  0  0  0
 38 41  1  0  0  0  0
 42 43  1  0  0  0  0
 42119  1  0  0  0  0
 43 44  1  0  0  0  0
 45 46  2  0  0  0  0
 45 49  1  0  0  0  0
 46 47  1  0  0  0  0
 46120  1  0  0  0  0
 47 48  2  0  0  0  0
 47121  1  0  0  0  0
 48 49  1  0  0  0  0
 48 50  1  0  0  0  0
 49122  1  0  0  0  0
 50 51  1  0  0  0  0
 50 63  2  0  0  0  0
 51 52  1  0  0  0  0
 51 61  2  0  0  0  0
 52 53  1  0  0  0  0
 52 54  2  0  0  0  0
 54 55  1  0  0  0  0
 54123  1  0  0  0  0
 55 56  1  0  0  0  0
 55 60  2  0  0  0  0
 56 57  2  0  0  0  0
 56 58  2  0  0  0  0
 56 59  1  0  0  0  0
 60 61  1  0  0  0  0
 60124  1  0  0  0  0
 61 62  1  0  0  0  0
 63 64  1  0  0  0  0
 63 85  1  0  0  0  0
 64 65  2  0  0  0  0
 65 66  1  0  0  0  0
 65 84  1  0  0  0  0
 66 67  1  0  0  0  0
 66 79  2  0  0  0  0
 67 68  1  0  0  0  0
 67 77  2  0  0  0  0
 68 69  1  0  0  0  0
 68 70  2  0  0  0  0
 70 71  1  0  0  0  0
 70125  1  0  0  0  0
 71 72  1  0  0  0  0
 71 76  2  0  0  0  0
 72 73  2  0  0  0  0
 72 74  2  0  0  0  0
 72 75  1  0  0  0  0
 76 77  1  0  0  0  0
 76126  1  0  0  0  0
 77 78  1  0  0  0  0
 79 80  1  0  0  0  0
 79 83  1  0  0  0  0
 80 81  2  0  0  0  0
 80127  1  0  0  0  0
 81 82  1  0  0  0  0
 81128  1  0  0  0  0
 82 83  1  0  0  0  0
 83129  1  0  0  0  0
 84 85  2  0  0  0  0
 84130  1  0  0  0  0
 85131  1  0  0  0  0
 86 87  2  0  0  0  0
 86132  1  0  0  0  0
 87133  1  0  0  0  0
 88 89  1  0  0  0  0
 88134  1  0  0  0  0
 89135  1  0  0  0  0
 91 92  1  0  0  0  0
 91136  1  0  0  0  0
 91137  1  0  0  0  0
 92138  1  0  0  0  0
 92139  1  0  0  0  0
M  CHG  3  41  -1  59  -1  75  -1
M  END
$$$$
