4_3_4264
 OpenBabel04152301373D

137148  0  0  1  0  0  0  0  0999 V2000
    1.8139    0.0877   -1.5825 C   0  0  0  0  0  0  0  0  0  0  0  0
    0.6637    0.6399   -0.7318 C   0  0  2  0  0  0  0  0  0  0  0  0
    0.9183    0.1292    0.6894 C   0  0  0  0  0  0  0  0  0  0  0  0
    0.6698   -1.1898    1.0801 C   0  0  0  0  0  0  0  0  0  0  0  0
    1.0910   -1.6138    2.3323 C   0  0  0  0  0  0  0  0  0  0  0  0
    1.7547   -0.8345    3.2113 N   0  0  0  0  0  0  0  0  0  0  0  0
    1.9945    0.4336    2.8200 C   0  0  0  0  0  0  0  0  0  0  0  0
    1.5977    0.9545    1.5978 C   0  0  0  0  0  0  0  0  0  0  0  0
   -0.7351    0.5279   -1.1684 N   0  3  1  0  0  0  0  0  0  0  0  0
   -1.2083    1.5303   -2.1346 C   0  0  2  0  0  0  0  0  0  0  0  0
   -2.7082    1.2213   -2.1739 C   0  0  0  0  0  0  0  0  0  0  0  0
   -2.7939   -0.2673   -1.8549 C   0  0  0  0  0  0  0  0  0  0  0  0
   -1.3325   -0.7080   -1.6637 C   0  0  1  0  0  0  0  0  0  0  0  0
   -0.7487   -1.1842   -2.9964 C   0  0  0  0  0  0  0  0  0  0  0  0
   -0.6085   -0.0959   -4.0837 C   0  0  2  0  0  0  0  0  0  0  0  0
    0.6348   -0.3347   -4.9710 C   0  0  0  0  0  0  0  0  0  0  0  0
    0.6340   -1.5407   -5.8836 C   0  0  0  0  0  0  0  0  0  0  0  0
    1.2091   -1.5411   -6.9647 O   0  0  0  0  0  0  0  0  0  0  0  0
    0.0098   -2.6123   -5.3396 O   0  0  0  0  0  0  0  0  0  0  0  0
   -0.0553   -3.7952   -6.1541 C   0  0  0  0  0  0  0  0  0  0  0  0
   -1.4146   -3.9012   -6.8450 C   0  0  0  0  0  0  0  0  0  0  0  0
   -1.5917   -2.8414   -7.8024 O   0  0  0  0  0  0  0  0  0  0  0  0
   -2.3439   -1.7967   -7.3906 C   0  0  0  0  0  0  0  0  0  0  0  0
   -2.9385   -1.6811   -6.3262 O   0  0  0  0  0  0  0  0  0  0  0  0
   -2.2492   -0.7181   -8.3815 C   0  0  0  0  0  0  0  0  0  0  0  0
   -1.3807    0.3451   -8.1272 C   0  0  0  0  0  0  0  0  0  0  0  0
   -1.2914    1.4080   -9.0186 C   0  0  0  0  0  0  0  0  0  0  0  0
   -2.0722    1.4139  -10.1792 C   0  0  0  0  0  0  0  0  0  0  0  0
   -1.9895    2.5598  -11.1156 C   0  0  0  0  0  0  0  0  0  0  0  0
   -3.1385    3.5193  -11.2222 C   0  0  0  0  0  0  0  0  0  0  0  0
   -3.3212    4.4981  -12.0687 N   0  0  0  0  0  0  0  0  0  0  0  0
   -4.5589    5.0446  -11.7534 C   0  0  0  0  0  0  0  0  0  0  0  0
   -5.1962    6.0827  -12.3451 C   0  0  0  0  0  0  0  0  0  0  0  0
   -6.5692    6.4272  -11.8428 C   0  0  0  0  0  0  0  0  0  0  0  0
   -6.7675    7.0835  -10.6185 C   0  0  0  0  0  0  0  0  0  0  0  0
   -5.7185    7.3953   -9.8411 F   0  0  0  0  0  0  0  0  0  0  0  0
   -8.0445    7.3856  -10.1553 C   0  0  0  0  0  0  0  0  0  0  0  0
   -9.1493    7.0430  -10.9376 C   0  0  0  0  0  0  0  0  0  0  0  0
  -10.8020    7.4289  -10.3213 S   0  0  0  0  0  0  0  0  0  0  0  0
  -10.9843    6.3905   -9.3117 O   0  0  0  0  0  0  0  0  0  0  0  0
  -10.6389    8.7863   -9.8107 O   0  0  0  0  0  0  0  0  0  0  0  0
  -11.6436    7.3062  -11.5074 O   0  5  0  0  0  0  0  0  0  0  0  0
   -8.9882    6.4171  -12.1728 C   0  0  0  0  0  0  0  0  0  0  0  0
   -7.7031    6.1056  -12.6063 C   0  0  0  0  0  0  0  0  0  0  0  0
   -7.5684    5.4742  -13.7831 F   0  0  0  0  0  0  0  0  0  0  0  0
   -4.6530    6.8440  -13.4398 C   0  0  0  0  0  0  0  0  0  0  0  0
   -5.2176    7.9156  -14.1092 C   0  0  0  0  0  0  0  0  0  0  0  0
   -4.3335    8.3157  -15.1183 C   0  0  0  0  0  0  0  0  0  0  0  0
   -3.2030    7.5166  -15.0540 C   0  0  0  0  0  0  0  0  0  0  0  0
   -3.4146    6.6163  -14.0232 N   0  0  0  0  0  0  0  0  0  0  0  0
   -2.0206    7.5683  -15.8770 C   0  0  0  0  0  0  0  0  0  0  0  0
   -1.9764    8.5936  -16.9729 C   0  0  0  0  0  0  0  0  0  0  0  0
   -2.1561    8.2356  -18.3175 C   0  0  0  0  0  0  0  0  0  0  0  0
   -2.3244    6.9478  -18.6571 F   0  0  0  0  0  0  0  0  0  0  0  0
   -2.1398    9.1893  -19.3297 C   0  0  0  0  0  0  0  0  0  0  0  0
   -1.9583   10.5323  -18.9931 C   0  0  0  0  0  0  0  0  0  0  0  0
   -1.9711   11.7674  -20.3100 S   0  0  0  0  0  0  0  0  0  0  0  0
   -0.6398   11.5988  -20.8828 O   0  0  0  0  0  0  0  0  0  0  0  0
   -3.0821   11.3250  -21.1470 O   0  0  0  0  0  0  0  0  0  0  0  0
   -2.1945   13.0208  -19.5955 O   0  5  0  0  0  0  0  0  0  0  0  0
   -1.7963   10.9253  -17.6647 C   0  0  0  0  0  0  0  0  0  0  0  0
   -1.7955    9.9523  -16.6707 C   0  0  0  0  0  0  0  0  0  0  0  0
   -1.6274   10.3454  -15.3981 F   0  0  0  0  0  0  0  0  0  0  0  0
   -0.9319    6.7734  -15.7307 C   0  0  0  0  0  0  0  0  0  0  0  0
   -0.7045    5.7614  -14.8058 N   0  0  0  0  0  0  0  0  0  0  0  0
    0.4830    5.2792  -15.0866 C   0  0  0  0  0  0  0  0  0  0  0  0
    1.2326    4.1650  -14.4104 C   0  0  0  0  0  0  0  0  0  0  0  0
    2.5790    3.7500  -14.8832 C   0  0  0  0  0  0  0  0  0  0  0  0
    3.7033    4.5581  -14.6651 C   0  0  0  0  0  0  0  0  0  0  0  0
    3.5687    5.7417  -14.0476 F   0  0  0  0  0  0  0  0  0  0  0  0
    4.9709    4.1714  -15.0892 C   0  0  0  0  0  0  0  0  0  0  0  0
    5.1246    2.9413  -15.7319 C   0  0  0  0  0  0  0  0  0  0  0  0
    6.7812    2.4161  -16.2243 S   0  0  0  0  0  0  0  0  0  0  0  0
    6.9965    3.2143  -17.4253 O   0  0  0  0  0  0  0  0  0  0  0  0
    7.5819    2.7844  -15.0607 O   0  0  0  0  0  0  0  0  0  0  0  0
    6.6261    0.9802  -16.4379 O   0  5  0  0  0  0  0  0  0  0  0  0
    4.0303    2.1073  -15.9575 C   0  0  0  0  0  0  0  0  0  0  0  0
    2.7700    2.5264  -15.5448 C   0  0  0  0  0  0  0  0  0  0  0  0
    1.7262    1.7131  -15.7695 F   0  0  0  0  0  0  0  0  0  0  0  0
    0.6516    3.5137  -13.3844 C   0  0  0  0  0  0  0  0  0  0  0  0
    1.2305    2.3844  -12.6629 C   0  0  0  0  0  0  0  0  0  0  0  0
    0.3249    1.9112  -11.7916 C   0  0  0  0  0  0  0  0  0  0  0  0
   -0.8782    2.7438  -11.8533 C   0  0  0  0  0  0  0  0  0  0  0  0
   -0.5813    3.6887  -12.8023 N   0  0  0  0  0  0  0  0  0  0  0  0
    1.1423    5.9266  -16.2287 C   0  0  0  0  0  0  0  0  0  0  0  0
    0.2486    6.8459  -16.5685 C   0  0  0  0  0  0  0  0  0  0  0  0
   -5.0847    4.2855  -10.6382 C   0  0  0  0  0  0  0  0  0  0  0  0
   -4.2276    3.3525  -10.2469 C   0  0  0  0  0  0  0  0  0  0  0  0
   -2.9500    0.3426  -10.4271 C   0  0  0  0  0  0  0  0  0  0  0  0
   -3.0472   -0.7219   -9.5247 C   0  0  0  0  0  0  0  0  0  0  0  0
   -0.5764    1.3527   -3.5244 C   0  0  0  0  0  0  0  0  0  0  0  0
    1.6950    0.4105   -2.5957 H   0  0  0  0  0  0  0  0  0  0  0  0
    1.8036   -0.9816   -1.5453 H   0  0  0  0  0  0  0  0  0  0  0  0
    2.7457    0.4489   -1.2001 H   0  0  0  0  0  0  0  0  0  0  0  0
    0.7128    1.7036   -0.8370 H   0  0  0  0  0  0  0  0  0  0  0  0
    0.1796   -1.8395    0.4456 H   0  0  0  0  0  0  0  0  0  0  0  0
    0.8836   -2.5862    2.6087 H   0  0  0  0  0  0  0  0  0  0  0  0
    2.5039    1.0534    3.4691 H   0  0  0  0  0  0  0  0  0  0  0  0
    1.7998    1.9380    1.3592 H   0  0  0  0  0  0  0  0  0  0  0  0
   -1.0397    0.6508   -0.2027 H   0  0  0  0  0  0  0  0  0  0  0  0
   -0.9608    2.5345   -1.8604 H   0  0  0  0  0  0  0  0  0  0  0  0
   -3.1120    1.4251   -3.1436 H   0  0  0  0  0  0  0  0  0  0  0  0
   -3.2674    1.8200   -1.4856 H   0  0  0  0  0  0  0  0  0  0  0  0
   -3.2468   -0.8015   -2.6639 H   0  0  0  0  0  0  0  0  0  0  0  0
   -3.3932   -0.4632   -0.9904 H   0  0  0  0  0  0  0  0  0  0  0  0
   -1.1723   -1.5353   -1.0043 H   0  0  0  0  0  0  0  0  0  0  0  0
   -1.3854   -1.9540   -3.3797 H   0  0  0  0  0  0  0  0  0  0  0  0
    0.2454   -1.5166   -2.7814 H   0  0  0  0  0  0  0  0  0  0  0  0
   -1.4954   -0.1849   -4.6757 H   0  0  0  0  0  0  0  0  0  0  0  0
    1.4778   -0.4296   -4.3189 H   0  0  0  0  0  0  0  0  0  0  0  0
    0.6542    0.5037   -5.6356 H   0  0  0  0  0  0  0  0  0  0  0  0
    0.0926   -4.6559   -5.5359 H   0  0  0  0  0  0  0  0  0  0  0  0
    0.7076   -3.7401   -6.9023 H   0  0  0  0  0  0  0  0  0  0  0  0
   -2.1875   -3.8391   -6.1076 H   0  0  0  0  0  0  0  0  0  0  0  0
   -1.4622   -4.8374   -7.3608 H   0  0  0  0  0  0  0  0  0  0  0  0
   -0.8019    0.3418   -7.2728 H   0  0  0  0  0  0  0  0  0  0  0  0
   -0.6494    2.1923   -8.8242 H   0  0  0  0  0  0  0  0  0  0  0  0
   -8.1733    7.8564   -9.2460 H   0  0  0  0  0  0  0  0  0  0  0  0
   -9.8084    6.1886  -12.7560 H   0  0  0  0  0  0  0  0  0  0  0  0
   -6.1323    8.3455  -13.9006 H   0  0  0  0  0  0  0  0  0  0  0  0
   -4.4961    9.0771  -15.7957 H   0  0  0  0  0  0  0  0  0  0  0  0
   -2.7796    5.9173  -13.7451 H   0  0  0  0  0  0  0  0  0  0  0  0
   -2.2601    8.9084  -20.3154 H   0  0  0  0  0  0  0  0  0  0  0  0
   -1.6789   11.9218  -17.4232 H   0  0  0  0  0  0  0  0  0  0  0  0
    5.7856    4.7848  -14.9310 H   0  0  0  0  0  0  0  0  0  0  0  0
    4.1534    1.1944  -16.4229 H   0  0  0  0  0  0  0  0  0  0  0  0
    2.1823    2.0100  -12.8003 H   0  0  0  0  0  0  0  0  0  0  0  0
    0.4557    1.0924  -11.1772 H   0  0  0  0  0  0  0  0  0  0  0  0
   -1.1926    4.4218  -13.0434 H   0  0  0  0  0  0  0  0  0  0  0  0
    2.0594    5.7204  -16.6546 H   0  0  0  0  0  0  0  0  0  0  0  0
    0.3775    7.5270  -17.3331 H   0  0  0  0  0  0  0  0  0  0  0  0
   -6.0066    4.4493  -10.2043 H   0  0  0  0  0  0  0  0  0  0  0  0
   -4.3042    2.6847   -9.4639 H   0  0  0  0  0  0  0  0  0  0  0  0
   -3.5274    0.3421  -11.2825 H   0  0  0  0  0  0  0  0  0  0  0  0
   -3.7012   -1.5000   -9.7029 H   0  0  0  0  0  0  0  0  0  0  0  0
    0.4461    1.6625   -3.4655 H   0  0  0  0  0  0  0  0  0  0  0  0
   -1.1633    1.9439   -4.1958 H   0  0  0  0  0  0  0  0  0  0  0  0
  1 92  1  0  0  0  0
  1 93  1  0  0  0  0
  1 94  1  0  0  0  0
  2  9  1  0  0  0  0
  2  3  1  0  0  0  0
  2  1  1  0  0  0  0
  2 95  1  1  0  0  0
  3  4  1  0  0  0  0
  3  8  2  0  0  0  0
  4  5  2  0  0  0  0
  4 96  1  0  0  0  0
  5  6  1  0  0  0  0
  5 97  1  0  0  0  0
  6  7  2  0  0  0  0
  7  8  1  0  0  0  0
  7 98  1  0  0  0  0
  8 99  1  0  0  0  0
  9 10  1  0  0  0  0
  9 13  1  0  0  0  0
  9100  1  1  0  0  0
 10 11  1  0  0  0  0
 10 91  1  0  0  0  0
 10101  1  1  0  0  0
 11 12  1  0  0  0  0
 11102  1  0  0  0  0
 11103  1  0  0  0  0
 12 13  1  0  0  0  0
 12104  1  0  0  0  0
 12105  1  0  0  0  0
 13 14  1  0  0  0  0
 13106  1  1  0  0  0
 14 15  1  0  0  0  0
 14107  1  0  0  0  0
 14108  1  0  0  0  0
 15 16  1  0  0  0  0
 15 91  1  0  0  0  0
 15109  1  6  0  0  0
 16 17  1  0  0  0  0
 16110  1  0  0  0  0
 16111  1  0  0  0  0
 17 18  2  0  0  0  0
 17 19  1  0  0  0  0
 19 20  1  0  0  0  0
 20 21  1  0  0  0  0
 20112  1  0  0  0  0
 20113  1  0  0  0  0
 21 22  1  0  0  0  0
 21114  1  0  0  0  0
 21115  1  0  0  0  0
 22 23  1  0  0  0  0
 23 24  2  0  0  0  0
 23 25  1  0  0  0  0
 25 26  1  0  0  0  0
 25 90  2  0  0  0  0
 26 27  2  0  0  0  0
 26116  1  0  0  0  0
 27 28  1  0  0  0  0
 27117  1  0  0  0  0
 28 29  1  0  0  0  0
 28 89  2  0  0  0  0
 29 30  1  0  0  0  0
 29 83  2  0  0  0  0
 30 31  2  0  0  0  0
 30 88  1  0  0  0  0
 31 32  1  0  0  0  0
 32 33  2  0  0  0  0
 32 87  1  0  0  0  0
 33 34  1  0  0  0  0
 33 46  1  0  0  0  0
 34 35  1  0  0  0  0
 34 44  2  0  0  0  0
 35 36  1  0  0  0  0
 35 37  2  0  0  0  0
 37 38  1  0  0  0  0
 37118  1  0  0  0  0
 38 39  1  0  0  0  0
 38 43  2  0  0  0  0
 39 40  2  0  0  0  0
 39 41  2  0  0  0  0
 39 42  1  0  0  0  0
 43 44  1  0  0  0  0
 43119  1  0  0  0  0
 44 45  1  0  0  0  0
 46 47  2  0  0  0  0
 46 50  1  0  0  0  0
 47 48  1  0  0  0  0
 47120  1  0  0  0  0
 48 49  2  0  0  0  0
 48121  1  0  0  0  0
 49 50  1  0  0  0  0
 49 51  1  0  0  0  0
 50122  1  0  0  0  0
 51 52  1  0  0  0  0
 51 64  2  0  0  0  0
 52 53  1  0  0  0  0
 52 62  2  0  0  0  0
 53 54  1  0  0  0  0
 53 55  2  0  0  0  0
 55 56  1  0  0  0  0
 55123  1  0  0  0  0
 56 57  1  0  0  0  0
 56 61  2  0  0  0  0
 57 58  2  0  0  0  0
 57 59  2  0  0  0  0
 57 60  1  0  0  0  0
 61 62  1  0  0  0  0
 61124  1  0  0  0  0
 62 63  1  0  0  0  0
 64 65  1  0  0  0  0
 64 86  1  0  0  0  0
 65 66  2  0  0  0  0
 66 67  1  0  0  0  0
 66 85  1  0  0  0  0
 67 68  1  0  0  0  0
 67 80  2  0  0  0  0
 68 69  1  0  0  0  0
 68 78  2  0  0  0  0
 69 70  1  0  0  0  0
 69 71  2  0  0  0  0
 71 72  1  0  0  0  0
 71125  1  0  0  0  0
 72 73  1  0  0  0  0
 72 77  2  0  0  0  0
 73 74  2  0  0  0  0
 73 75  2  0  0  0  0
 73 76  1  0  0  0  0
 77 78  1  0  0  0  0
 77126  1  0  0  0  0
 78 79  1  0  0  0  0
 80 81  1  0  0  0  0
 80 84  1  0  0  0  0
 81 82  2  0  0  0  0
 81127  1  0  0  0  0
 82 83  1  0  0  0  0
 82128  1  0  0  0  0
 83 84  1  0  0  0  0
 84129  1  0  0  0  0
 85 86  2  0  0  0  0
 85130  1  0  0  0  0
 86131  1  0  0  0  0
 87 88  2  0  0  0  0
 87132  1  0  0  0  0
 88133  1  0  0  0  0
 89 90  1  0  0  0  0
 89134  1  0  0  0  0
 90135  1  0  0  0  0
 91136  1  0  0  0  0
 91137  1  0  0  0  0
M  CHG  4   9   1  42  -1  60  -1  76  -1
M  END
$$$$
