4_3_6987
 OpenBabel04152301373D

132143  0  0  0  0  0  0  0  0999 V2000
    2.1611   -1.9758   -0.6265 O   0  0  0  0  0  0  0  0  0  0  0  0
    3.0240   -1.1296   -0.3977 C   0  0  0  0  0  0  0  0  0  0  0  0
    3.0738   -0.0208   -1.1787 O   0  0  0  0  0  0  0  0  0  0  0  0
    4.1594    0.9079   -1.3548 C   0  0  0  0  0  0  0  0  0  0  0  0
    4.1453    2.1040   -0.3968 C   0  0  0  0  0  0  0  0  0  0  0  0
    3.6216    1.7629    0.8939 O   0  0  0  0  0  0  0  0  0  0  0  0
    2.3088    2.0633    1.0612 C   0  0  0  0  0  0  0  0  0  0  0  0
    1.6199    2.7511    0.3228 O   0  0  0  0  0  0  0  0  0  0  0  0
    1.7469    1.2540    2.1597 C   0  0  0  0  0  0  0  0  0  0  0  0
    0.5453    0.5842    1.8921 C   0  0  0  0  0  0  0  0  0  0  0  0
   -0.0242   -0.2423    2.8530 C   0  0  0  0  0  0  0  0  0  0  0  0
    0.5939   -0.3821    4.0879 C   0  0  0  0  0  0  0  0  0  0  0  0
    1.7926    0.2831    4.3623 C   0  0  0  0  0  0  0  0  0  0  0  0
    2.4680    0.0159    5.5589 N   0  0  0  0  0  0  0  0  0  0  0  0
    1.9312   -0.3767    6.7473 C   0  0  0  0  0  0  0  0  0  0  0  0
    2.8133   -1.3995    7.7376 S   0  0  0  0  0  0  0  0  0  0  0  0
    0.7535    0.1651    7.2014 N   0  0  0  0  0  0  0  0  0  0  0  0
    0.0081    1.1771    6.6099 N   0  0  0  0  0  0  0  0  0  0  0  0
    0.2922    2.4265    6.8883 C   0  0  0  0  0  0  0  0  0  0  0  0
    1.4427    2.8086    7.6691 C   0  0  0  0  0  0  0  0  0  0  0  0
    2.7402    2.5224    7.2940 C   0  0  0  0  0  0  0  0  0  0  0  0
    3.2689    1.9871    8.4379 N   0  0  0  0  0  0  0  0  0  0  0  0
    2.5391    2.4082    9.5226 C   0  0  0  0  0  0  0  0  0  0  0  0
    2.7089    2.1544   10.8821 C   0  0  0  0  0  0  0  0  0  0  0  0
    2.0734    3.0329   11.7534 C   0  0  0  0  0  0  0  0  0  0  0  0
    1.2296    4.0329   11.2701 C   0  0  0  0  0  0  0  0  0  0  0  0
    0.8713    4.0833    9.9131 C   0  0  0  0  0  0  0  0  0  0  0  0
    1.5462    3.2405    9.0159 C   0  0  0  0  0  0  0  0  0  0  0  0
    2.3893    1.0941    3.3915 C   0  0  0  0  0  0  0  0  0  0  0  0
    3.8495   -1.2869    0.8411 C   0  0  0  0  0  0  0  0  0  0  0  0
    5.1759   -0.8784    0.9984 C   0  0  0  0  0  0  0  0  0  0  0  0
    5.8302   -1.0055    2.2294 C   0  0  0  0  0  0  0  0  0  0  0  0
    5.1839   -1.5815    3.3246 C   0  0  0  0  0  0  0  0  0  0  0  0
    5.9385   -1.8447    4.5739 C   0  0  0  0  0  0  0  0  0  0  0  0
    6.3564   -3.2633    4.8577 C   0  0  0  0  0  0  0  0  0  0  0  0
    7.0353   -3.7381    5.8677 N   0  0  0  0  0  0  0  0  0  0  0  0
    7.2407   -5.0815    5.5779 C   0  0  0  0  0  0  0  0  0  0  0  0
    8.0228   -5.9747    6.2267 C   0  0  0  0  0  0  0  0  0  0  0  0
    8.2161   -7.3111    5.5705 C   0  0  0  0  0  0  0  0  0  0  0  0
    8.9832   -7.4269    4.3975 C   0  0  0  0  0  0  0  0  0  0  0  0
    9.5343   -6.3368    3.8391 F   0  0  0  0  0  0  0  0  0  0  0  0
    9.1538   -8.6474    3.7561 C   0  0  0  0  0  0  0  0  0  0  0  0
    8.5662   -9.7867    4.3061 C   0  0  0  0  0  0  0  0  0  0  0  0
    8.7972  -11.3628    3.4573 S   0  0  0  0  0  0  0  0  0  0  0  0
    7.9426  -11.1912    2.2864 O   0  0  0  0  0  0  0  0  0  0  0  0
   10.2333  -11.3689    3.1967 O   0  0  0  0  0  0  0  0  0  0  0  0
    8.3359  -12.3452    4.4329 O   0  5  0  0  0  0  0  0  0  0  0  0
    7.8214   -9.7151    5.4840 C   0  0  0  0  0  0  0  0  0  0  0  0
    7.6452   -8.4773    6.0982 C   0  0  0  0  0  0  0  0  0  0  0  0
    6.8980   -8.4206    7.2114 F   0  0  0  0  0  0  0  0  0  0  0  0
    8.7015   -5.6922    7.4601 C   0  0  0  0  0  0  0  0  0  0  0  0
    9.5304   -6.5133    8.2018 C   0  0  0  0  0  0  0  0  0  0  0  0
    9.9097   -5.8179    9.3562 C   0  0  0  0  0  0  0  0  0  0  0  0
    9.3505   -4.5508    9.3099 C   0  0  0  0  0  0  0  0  0  0  0  0
    8.6068   -4.4902    8.1455 N   0  0  0  0  0  0  0  0  0  0  0  0
    9.4727   -3.4798   10.2640 C   0  0  0  0  0  0  0  0  0  0  0  0
   10.3045   -3.7190   11.4861 C   0  0  0  0  0  0  0  0  0  0  0  0
    9.7404   -3.8861   12.7577 C   0  0  0  0  0  0  0  0  0  0  0  0
    8.4103   -3.8132   12.9228 F   0  0  0  0  0  0  0  0  0  0  0  0
   10.5395   -4.0828   13.8785 C   0  0  0  0  0  0  0  0  0  0  0  0
   11.9272   -4.1359   13.7220 C   0  0  0  0  0  0  0  0  0  0  0  0
   12.9581   -4.4059   15.1774 S   0  0  0  0  0  0  0  0  0  0  0  0
   12.9299   -3.0886   15.8039 O   0  0  0  0  0  0  0  0  0  0  0  0
   12.2357   -5.4602   15.8824 O   0  0  0  0  0  0  0  0  0  0  0  0
   14.2431   -4.8063   14.6118 O   0  5  0  0  0  0  0  0  0  0  0  0
   12.5177   -3.9997   12.4669 C   0  0  0  0  0  0  0  0  0  0  0  0
   11.7024   -3.7788   11.3658 C   0  0  0  0  0  0  0  0  0  0  0  0
   12.2856   -3.6223   10.1665 F   0  0  0  0  0  0  0  0  0  0  0  0
    8.9798   -2.2284   10.1024 C   0  0  0  0  0  0  0  0  0  0  0  0
    8.3239   -1.6867    9.0054 N   0  0  0  0  0  0  0  0  0  0  0  0
    8.1447   -0.4216    9.2925 C   0  0  0  0  0  0  0  0  0  0  0  0
    7.5552    0.6634    8.4405 C   0  0  0  0  0  0  0  0  0  0  0  0
    7.3636    2.0171    9.0194 C   0  0  0  0  0  0  0  0  0  0  0  0
    8.3202    3.0335    9.0052 C   0  0  0  0  0  0  0  0  0  0  0  0
    9.5158    2.8189    8.4387 F   0  0  0  0  0  0  0  0  0  0  0  0
    8.0751    4.2679    9.6130 C   0  0  0  0  0  0  0  0  0  0  0  0
    6.8431    4.4939   10.2320 C   0  0  0  0  0  0  0  0  0  0  0  0
    6.4717    6.0975   10.9786 S   0  0  0  0  0  0  0  0  0  0  0  0
    6.9144    5.8873   12.3519 O   0  0  0  0  0  0  0  0  0  0  0  0
    7.2788    7.0151   10.1807 O   0  0  0  0  0  0  0  0  0  0  0  0
    5.0299    6.2235   10.7895 O   0  5  0  0  0  0  0  0  0  0  0  0
    5.8803    3.4945   10.2753 C   0  0  0  0  0  0  0  0  0  0  0  0
    6.1731    2.2628    9.7049 C   0  0  0  0  0  0  0  0  0  0  0  0
    5.2991    1.2548    9.8324 F   0  0  0  0  0  0  0  0  0  0  0  0
    7.0656    0.3471    7.2243 C   0  0  0  0  0  0  0  0  0  0  0  0
    6.4510    1.2732    6.2786 C   0  0  0  0  0  0  0  0  0  0  0  0
    6.0153    0.5816    5.2081 C   0  0  0  0  0  0  0  0  0  0  0  0
    6.3011   -0.8432    5.4024 C   0  0  0  0  0  0  0  0  0  0  0  0
    6.9779   -0.8754    6.5967 N   0  0  0  0  0  0  0  0  0  0  0  0
    8.6020   -0.0280   10.6318 C   0  0  0  0  0  0  0  0  0  0  0  0
    9.1145   -1.1654   11.0785 C   0  0  0  0  0  0  0  0  0  0  0  0
    6.5186   -5.3751    4.3616 C   0  0  0  0  0  0  0  0  0  0  0  0
    5.9865   -4.2761    3.8517 C   0  0  0  0  0  0  0  0  0  0  0  0
    3.8749   -2.0499    3.1628 C   0  0  0  0  0  0  0  0  0  0  0  0
    3.2239   -1.9179    1.9306 C   0  0  0  0  0  0  0  0  0  0  0  0
    4.1171    1.2831   -2.3560 H   0  0  0  0  0  0  0  0  0  0  0  0
    5.0569    0.3647   -1.1444 H   0  0  0  0  0  0  0  0  0  0  0  0
    3.5388    2.8769   -0.8207 H   0  0  0  0  0  0  0  0  0  0  0  0
    5.1563    2.4283   -0.2640 H   0  0  0  0  0  0  0  0  0  0  0  0
    0.0817    0.7053    0.9780 H   0  0  0  0  0  0  0  0  0  0  0  0
   -0.9003   -0.7485    2.6500 H   0  0  0  0  0  0  0  0  0  0  0  0
    0.1650   -0.9822    4.8097 H   0  0  0  0  0  0  0  0  0  0  0  0
    3.4463    0.1246    5.5390 H   0  0  0  0  0  0  0  0  0  0  0  0
    0.3974   -0.2057    8.0410 H   0  0  0  0  0  0  0  0  0  0  0  0
   -0.3334    3.1669    6.5340 H   0  0  0  0  0  0  0  0  0  0  0  0
    3.1968    2.6739    6.3810 H   0  0  0  0  0  0  0  0  0  0  0  0
    4.0520    1.3917    8.4769 H   0  0  0  0  0  0  0  0  0  0  0  0
    3.2735    1.3606   11.2228 H   0  0  0  0  0  0  0  0  0  0  0  0
    2.2281    2.9437   12.7698 H   0  0  0  0  0  0  0  0  0  0  0  0
    0.8631    4.7464   11.9194 H   0  0  0  0  0  0  0  0  0  0  0  0
    0.1314    4.7231    9.5842 H   0  0  0  0  0  0  0  0  0  0  0  0
    3.2874    1.5659    3.5808 H   0  0  0  0  0  0  0  0  0  0  0  0
    5.6819   -0.4763    0.1939 H   0  0  0  0  0  0  0  0  0  0  0  0
    6.8010   -0.6697    2.3284 H   0  0  0  0  0  0  0  0  0  0  0  0
    9.7064   -8.7101    2.8867 H   0  0  0  0  0  0  0  0  0  0  0  0
    7.4072  -10.5667    5.8941 H   0  0  0  0  0  0  0  0  0  0  0  0
    9.8191   -7.4713    7.9488 H   0  0  0  0  0  0  0  0  0  0  0  0
   10.5054   -6.1868   10.1139 H   0  0  0  0  0  0  0  0  0  0  0  0
    8.0869   -3.7092    7.8472 H   0  0  0  0  0  0  0  0  0  0  0  0
   10.1138   -4.1881   14.8127 H   0  0  0  0  0  0  0  0  0  0  0  0
   13.5421   -4.0620   12.3584 H   0  0  0  0  0  0  0  0  0  0  0  0
    8.7971    5.0053    9.6047 H   0  0  0  0  0  0  0  0  0  0  0  0
    4.9656    3.6636   10.7223 H   0  0  0  0  0  0  0  0  0  0  0  0
    6.3642    2.2932    6.4090 H   0  0  0  0  0  0  0  0  0  0  0  0
    5.5529    0.9904    4.3810 H   0  0  0  0  0  0  0  0  0  0  0  0
    7.3659   -1.6992    6.9710 H   0  0  0  0  0  0  0  0  0  0  0  0
    8.5405    0.8896   11.1000 H   0  0  0  0  0  0  0  0  0  0  0  0
    9.5543   -1.2800   12.0050 H   0  0  0  0  0  0  0  0  0  0  0  0
    6.4297   -6.3156    3.9462 H   0  0  0  0  0  0  0  0  0  0  0  0
    5.4515   -4.1583    2.9771 H   0  0  0  0  0  0  0  0  0  0  0  0
    3.3872   -2.4949    3.9560 H   0  0  0  0  0  0  0  0  0  0  0  0
    2.2678   -2.2904    1.8200 H   0  0  0  0  0  0  0  0  0  0  0  0
  1  2  2  0  0  0  0
  2  3  1  0  0  0  0
  2 30  1  0  0  0  0
  3  4  1  0  0  0  0
  4  5  1  0  0  0  0
  4 96  1  0  0  0  0
  4 97  1  0  0  0  0
  5  6  1  0  0  0  0
  5 98  1  0  0  0  0
  5 99  1  0  0  0  0
  6  7  1  0  0  0  0
  7  8  2  0  0  0  0
  7  9  1  0  0  0  0
  9 10  1  0  0  0  0
  9 29  2  0  0  0  0
 10 11  2  0  0  0  0
 10100  1  0  0  0  0
 11 12  1  0  0  0  0
 11101  1  0  0  0  0
 12 13  2  0  0  0  0
 12102  1  0  0  0  0
 13 14  1  0  0  0  0
 13 29  1  0  0  0  0
 14 15  1  0  0  0  0
 14103  1  0  0  0  0
 15 16  2  0  0  0  0
 15 17  1  0  0  0  0
 17 18  1  0  0  0  0
 17104  1  0  0  0  0
 18 19  2  0  0  0  0
 19 20  1  0  0  0  0
 19105  1  0  0  0  0
 20 21  2  0  0  0  0
 20 28  1  0  0  0  0
 21 22  1  0  0  0  0
 21106  1  0  0  0  0
 22 23  1  0  0  0  0
 22107  1  0  0  0  0
 23 24  1  0  0  0  0
 23 28  2  0  0  0  0
 24 25  2  0  0  0  0
 24108  1  0  0  0  0
 25 26  1  0  0  0  0
 25109  1  0  0  0  0
 26 27  2  0  0  0  0
 26110  1  0  0  0  0
 27 28  1  0  0  0  0
 27111  1  0  0  0  0
 29112  1  0  0  0  0
 30 31  1  0  0  0  0
 30 95  2  0  0  0  0
 31 32  2  0  0  0  0
 31113  1  0  0  0  0
 32 33  1  0  0  0  0
 32114  1  0  0  0  0
 33 34  1  0  0  0  0
 33 94  2  0  0  0  0
 34 35  1  0  0  0  0
 34 88  2  0  0  0  0
 35 36  2  0  0  0  0
 35 93  1  0  0  0  0
 36 37  1  0  0  0  0
 37 38  2  0  0  0  0
 37 92  1  0  0  0  0
 38 39  1  0  0  0  0
 38 51  1  0  0  0  0
 39 40  1  0  0  0  0
 39 49  2  0  0  0  0
 40 41  1  0  0  0  0
 40 42  2  0  0  0  0
 42 43  1  0  0  0  0
 42115  1  0  0  0  0
 43 44  1  0  0  0  0
 43 48  2  0  0  0  0
 44 45  2  0  0  0  0
 44 46  2  0  0  0  0
 44 47  1  0  0  0  0
 48 49  1  0  0  0  0
 48116  1  0  0  0  0
 49 50  1  0  0  0  0
 51 52  2  0  0  0  0
 51 55  1  0  0  0  0
 52 53  1  0  0  0  0
 52117  1  0  0  0  0
 53 54  2  0  0  0  0
 53118  1  0  0  0  0
 54 55  1  0  0  0  0
 54 56  1  0  0  0  0
 55119  1  0  0  0  0
 56 57  1  0  0  0  0
 56 69  2  0  0  0  0
 57 58  1  0  0  0  0
 57 67  2  0  0  0  0
 58 59  1  0  0  0  0
 58 60  2  0  0  0  0
 60 61  1  0  0  0  0
 60120  1  0  0  0  0
 61 62  1  0  0  0  0
 61 66  2  0  0  0  0
 62 63  2  0  0  0  0
 62 64  2  0  0  0  0
 62 65  1  0  0  0  0
 66 67  1  0  0  0  0
 66121  1  0  0  0  0
 67 68  1  0  0  0  0
 69 70  1  0  0  0  0
 69 91  1  0  0  0  0
 70 71  2  0  0  0  0
 71 72  1  0  0  0  0
 71 90  1  0  0  0  0
 72 73  1  0  0  0  0
 72 85  2  0  0  0  0
 73 74  1  0  0  0  0
 73 83  2  0  0  0  0
 74 75  1  0  0  0  0
 74 76  2  0  0  0  0
 76 77  1  0  0  0  0
 76122  1  0  0  0  0
 77 78  1  0  0  0  0
 77 82  2  0  0  0  0
 78 79  2  0  0  0  0
 78 80  2  0  0  0  0
 78 81  1  0  0  0  0
 82 83  1  0  0  0  0
 82123  1  0  0  0  0
 83 84  1  0  0  0  0
 85 86  1  0  0  0  0
 85 89  1  0  0  0  0
 86 87  2  0  0  0  0
 86124  1  0  0  0  0
 87 88  1  0  0  0  0
 87125  1  0  0  0  0
 88 89  1  0  0  0  0
 89126  1  0  0  0  0
 90 91  2  0  0  0  0
 90127  1  0  0  0  0
 91128  1  0  0  0  0
 92 93  2  0  0  0  0
 92129  1  0  0  0  0
 93130  1  0  0  0  0
 94 95  1  0  0  0  0
 94131  1  0  0  0  0
 95132  1  0  0  0  0
M  CHG  3  47  -1  65  -1  81  -1
M  END
$$$$
