4_3_3308
 OpenBabel04152301373D

114124  0  0  0  0  0  0  0  0999 V2000
    1.1846    0.3339   -0.4172 C   0  0  0  0  0  0  0  0  0  0  0  0
   -0.0016   -0.1219   -1.6898 S   0  0  0  0  0  0  0  0  0  0  0  0
    0.7690    0.5573   -3.0964 C   0  0  0  0  0  0  0  0  0  0  0  0
    0.7906    1.8933   -3.3711 N   0  0  0  0  0  0  0  0  0  0  0  0
    1.2384    1.9354   -4.6115 C   0  0  0  0  0  0  0  0  0  0  0  0
    1.3981    2.9840   -5.4755 N   0  0  0  0  0  0  0  0  0  0  0  0
    1.6776    2.7793   -6.6937 N   0  0  0  0  0  0  0  0  0  0  0  0
    1.8663    1.4968   -7.1844 C   0  0  0  0  0  0  0  0  0  0  0  0
    2.1363    1.2786   -8.6319 C   0  0  0  0  0  0  0  0  0  0  0  0
    2.0077    0.1780   -9.1624 O   0  0  0  0  0  0  0  0  0  0  0  0
    2.6171    2.3901   -9.2435 O   0  0  0  0  0  0  0  0  0  0  0  0
    3.1867    2.1680  -10.5468 C   0  0  0  0  0  0  0  0  0  0  0  0
    4.6811    1.8521  -10.4811 C   0  0  0  0  0  0  0  0  0  0  0  0
    4.9766    0.5635   -9.9302 O   0  0  0  0  0  0  0  0  0  0  0  0
    5.1797    0.5626   -8.5922 C   0  0  0  0  0  0  0  0  0  0  0  0
    4.7754    1.3919   -7.7942 O   0  0  0  0  0  0  0  0  0  0  0  0
    6.0914   -0.5171   -8.2041 C   0  0  0  0  0  0  0  0  0  0  0  0
    6.1224   -0.8799   -6.8546 C   0  0  0  0  0  0  0  0  0  0  0  0
    7.1784   -1.6417   -6.3913 C   0  0  0  0  0  0  0  0  0  0  0  0
    8.1867   -2.0340   -7.2800 C   0  0  0  0  0  0  0  0  0  0  0  0
    9.2939   -2.8100   -6.7381 C   0  0  0  0  0  0  0  0  0  0  0  0
    8.9316   -4.1640   -6.2391 C   0  0  0  0  0  0  0  0  0  0  0  0
    9.1323   -4.6774   -5.0694 N   0  0  0  0  0  0  0  0  0  0  0  0
    8.6737   -5.9908   -5.1467 C   0  0  0  0  0  0  0  0  0  0  0  0
    9.0518   -6.9493   -4.2587 C   0  0  0  0  0  0  0  0  0  0  0  0
    9.2487   -8.4009   -4.6234 C   0  0  0  0  0  0  0  0  0  0  0  0
    9.4482   -9.3590   -3.6088 C   0  0  0  0  0  0  0  0  0  0  0  0
    9.2288   -9.0485   -2.3212 F   0  0  0  0  0  0  0  0  0  0  0  0
    9.9529  -10.6334   -3.8742 C   0  0  0  0  0  0  0  0  0  0  0  0
   10.2322  -10.9961   -5.1887 C   0  0  0  0  0  0  0  0  0  0  0  0
   11.0190  -12.5810   -5.5253 S   0  0  0  0  0  0  0  0  0  0  0  0
   12.3622  -12.3515   -5.0055 O   0  0  0  0  0  0  0  0  0  0  0  0
   10.1860  -13.5047   -4.7627 O   0  0  0  0  0  0  0  0  0  0  0  0
   10.9157  -12.7050   -6.9764 O   0  5  0  0  0  0  0  0  0  0  0  0
    9.9740  -10.1216   -6.2307 C   0  0  0  0  0  0  0  0  0  0  0  0
    9.5250   -8.8394   -5.9385 C   0  0  0  0  0  0  0  0  0  0  0  0
    9.4707   -8.0142   -6.9918 F   0  0  0  0  0  0  0  0  0  0  0  0
    9.5533   -6.3809   -3.0383 C   0  0  0  0  0  0  0  0  0  0  0  0
    9.0127   -5.5912   -2.0435 C   0  0  0  0  0  0  0  0  0  0  0  0
   10.0870   -4.7798   -1.5803 C   0  0  0  0  0  0  0  0  0  0  0  0
   11.2258   -5.1289   -2.3096 C   0  0  0  0  0  0  0  0  0  0  0  0
   10.9122   -6.3499   -2.8505 N   0  0  0  0  0  0  0  0  0  0  0  0
   12.4181   -4.3721   -2.6364 C   0  0  0  0  0  0  0  0  0  0  0  0
   12.5885   -3.0599   -1.9153 C   0  0  0  0  0  0  0  0  0  0  0  0
   12.2834   -1.8116   -2.4843 C   0  0  0  0  0  0  0  0  0  0  0  0
   11.9081   -1.7127   -3.7670 F   0  0  0  0  0  0  0  0  0  0  0  0
   12.2752   -0.6410   -1.7243 C   0  0  0  0  0  0  0  0  0  0  0  0
   12.5416   -0.7140   -0.3572 C   0  0  0  0  0  0  0  0  0  0  0  0
   12.3832    0.7806    0.6457 S   0  0  0  0  0  0  0  0  0  0  0  0
   13.5634    1.5424    0.2518 O   0  0  0  0  0  0  0  0  0  0  0  0
   11.1016    1.3247    0.2050 O   0  0  0  0  0  0  0  0  0  0  0  0
   12.3950    0.2754    2.0166 O   0  5  0  0  0  0  0  0  0  0  0  0
   12.8416   -1.9350    0.2431 C   0  0  0  0  0  0  0  0  0  0  0  0
   12.8737   -3.0864   -0.5406 C   0  0  0  0  0  0  0  0  0  0  0  0
   13.1157   -4.2569    0.0734 F   0  0  0  0  0  0  0  0  0  0  0  0
   13.2226   -4.6357   -3.7074 C   0  0  0  0  0  0  0  0  0  0  0  0
   13.9471   -3.6316   -4.3323 N   0  0  0  0  0  0  0  0  0  0  0  0
   14.0673   -4.0222   -5.5725 C   0  0  0  0  0  0  0  0  0  0  0  0
   14.0982   -3.1092   -6.7443 C   0  0  0  0  0  0  0  0  0  0  0  0
   15.1747   -3.1353   -7.7691 C   0  0  0  0  0  0  0  0  0  0  0  0
   16.4806   -3.5428   -7.4466 C   0  0  0  0  0  0  0  0  0  0  0  0
   16.8328   -3.7288   -6.1654 F   0  0  0  0  0  0  0  0  0  0  0  0
   17.4353   -3.8327   -8.4280 C   0  0  0  0  0  0  0  0  0  0  0  0
   17.0939   -3.7047   -9.7741 C   0  0  0  0  0  0  0  0  0  0  0  0
   18.2701   -4.2216  -11.0446 S   0  0  0  0  0  0  0  0  0  0  0  0
   19.3442   -3.2492  -10.8760 O   0  0  0  0  0  0  0  0  0  0  0  0
   18.5761   -5.5890  -10.6386 O   0  0  0  0  0  0  0  0  0  0  0  0
   17.5072   -4.0984  -12.2844 O   0  5  0  0  0  0  0  0  0  0  0  0
   15.8295   -3.2645  -10.1387 C   0  0  0  0  0  0  0  0  0  0  0  0
   14.8903   -3.0015   -9.1448 C   0  0  0  0  0  0  0  0  0  0  0  0
   13.6571   -2.6963   -9.5751 F   0  0  0  0  0  0  0  0  0  0  0  0
   12.8750   -2.5366   -6.8491 C   0  0  0  0  0  0  0  0  0  0  0  0
   12.4575   -1.3686   -7.6072 C   0  0  0  0  0  0  0  0  0  0  0  0
   11.1151   -1.2457   -7.5217 C   0  0  0  0  0  0  0  0  0  0  0  0
   10.5752   -2.4016   -6.8008 C   0  0  0  0  0  0  0  0  0  0  0  0
   11.6894   -3.0175   -6.3159 N   0  0  0  0  0  0  0  0  0  0  0  0
   13.8069   -5.4358   -5.8032 C   0  0  0  0  0  0  0  0  0  0  0  0
   13.2793   -5.7681   -4.6231 C   0  0  0  0  0  0  0  0  0  0  0  0
    7.9774   -6.1105   -6.4006 C   0  0  0  0  0  0  0  0  0  0  0  0
    8.1634   -5.0267   -7.1512 C   0  0  0  0  0  0  0  0  0  0  0  0
    8.0989   -1.7580   -8.6461 C   0  0  0  0  0  0  0  0  0  0  0  0
    7.0468   -0.9910   -9.1122 C   0  0  0  0  0  0  0  0  0  0  0  0
    1.8138    0.4041   -6.3894 C   0  0  0  0  0  0  0  0  0  0  0  0
    2.0151   -0.9074   -6.8011 O   0  0  0  0  0  0  0  0  0  0  0  0
    1.4798    0.6405   -5.0569 N   0  0  0  0  0  0  0  0  0  0  0  0
    1.2235   -0.2382   -4.0599 N   0  0  0  0  0  0  0  0  0  0  0  0
    0.8437   -0.0227    0.5323 H   0  0  0  0  0  0  0  0  0  0  0  0
    1.2810    1.3990   -0.3845 H   0  0  0  0  0  0  0  0  0  0  0  0
    2.1348   -0.1035   -0.6422 H   0  0  0  0  0  0  0  0  0  0  0  0
    3.0469    3.0488  -11.1380 H   0  0  0  0  0  0  0  0  0  0  0  0
    2.6926    1.3237  -10.9803 H   0  0  0  0  0  0  0  0  0  0  0  0
    5.1565    2.5949   -9.8752 H   0  0  0  0  0  0  0  0  0  0  0  0
    5.0436    1.8508  -11.4878 H   0  0  0  0  0  0  0  0  0  0  0  0
    5.3690   -0.5837   -6.2146 H   0  0  0  0  0  0  0  0  0  0  0  0
    7.2234   -1.9191   -5.3983 H   0  0  0  0  0  0  0  0  0  0  0  0
   10.1172  -11.2998   -3.1035 H   0  0  0  0  0  0  0  0  0  0  0  0
   10.1129  -10.4176   -7.2095 H   0  0  0  0  0  0  0  0  0  0  0  0
    8.0371   -5.5893   -1.7070 H   0  0  0  0  0  0  0  0  0  0  0  0
   10.0338   -4.0632   -0.8395 H   0  0  0  0  0  0  0  0  0  0  0  0
   11.5462   -7.0719   -3.0648 H   0  0  0  0  0  0  0  0  0  0  0  0
   12.0743    0.2684   -2.1689 H   0  0  0  0  0  0  0  0  0  0  0  0
   13.0375   -1.9858    1.2551 H   0  0  0  0  0  0  0  0  0  0  0  0
   18.3833   -4.1384   -8.1580 H   0  0  0  0  0  0  0  0  0  0  0  0
   15.5883   -3.1337  -11.1336 H   0  0  0  0  0  0  0  0  0  0  0  0
   13.0854   -0.7355   -8.1268 H   0  0  0  0  0  0  0  0  0  0  0  0
   10.5594   -0.4639   -7.9026 H   0  0  0  0  0  0  0  0  0  0  0  0
   11.6555   -3.7391   -5.6470 H   0  0  0  0  0  0  0  0  0  0  0  0
   13.9805   -6.0150   -6.6395 H   0  0  0  0  0  0  0  0  0  0  0  0
   12.9497   -6.7170   -4.3865 H   0  0  0  0  0  0  0  0  0  0  0  0
    7.4105   -6.9263   -6.6801 H   0  0  0  0  0  0  0  0  0  0  0  0
    7.8514   -4.8407   -8.1172 H   0  0  0  0  0  0  0  0  0  0  0  0
    8.8101   -2.1218   -9.2995 H   0  0  0  0  0  0  0  0  0  0  0  0
    6.9665   -0.7704  -10.1171 H   0  0  0  0  0  0  0  0  0  0  0  0
    2.2404   -1.0894   -7.6922 H   0  0  0  0  0  0  0  0  0  0  0  0
  1  2  1  0  0  0  0
  1 87  1  0  0  0  0
  1 88  1  0  0  0  0
  1 89  1  0  0  0  0
  2  3  1  0  0  0  0
  3  4  1  0  0  0  0
  3 86  2  0  0  0  0
  4  5  2  0  0  0  0
  5  6  1  0  0  0  0
  5 85  1  0  0  0  0
  6  7  2  0  0  0  0
  7  8  1  0  0  0  0
  8  9  1  0  0  0  0
  8 83  2  0  0  0  0
  9 10  2  0  0  0  0
  9 11  1  0  0  0  0
 11 12  1  0  0  0  0
 12 13  1  0  0  0  0
 12 90  1  0  0  0  0
 12 91  1  0  0  0  0
 13 14  1  0  0  0  0
 13 92  1  0  0  0  0
 13 93  1  0  0  0  0
 14 15  1  0  0  0  0
 15 16  2  0  0  0  0
 15 17  1  0  0  0  0
 17 18  1  0  0  0  0
 17 82  2  0  0  0  0
 18 19  2  0  0  0  0
 18 94  1  0  0  0  0
 19 20  1  0  0  0  0
 19 95  1  0  0  0  0
 20 21  1  0  0  0  0
 20 81  2  0  0  0  0
 21 22  1  0  0  0  0
 21 75  2  0  0  0  0
 22 23  2  0  0  0  0
 22 80  1  0  0  0  0
 23 24  1  0  0  0  0
 24 25  2  0  0  0  0
 24 79  1  0  0  0  0
 25 26  1  0  0  0  0
 25 38  1  0  0  0  0
 26 27  1  0  0  0  0
 26 36  2  0  0  0  0
 27 28  1  0  0  0  0
 27 29  2  0  0  0  0
 29 30  1  0  0  0  0
 29 96  1  0  0  0  0
 30 31  1  0  0  0  0
 30 35  2  0  0  0  0
 31 32  2  0  0  0  0
 31 33  2  0  0  0  0
 31 34  1  0  0  0  0
 35 36  1  0  0  0  0
 35 97  1  0  0  0  0
 36 37  1  0  0  0  0
 38 39  2  0  0  0  0
 38 42  1  0  0  0  0
 39 40  1  0  0  0  0
 39 98  1  0  0  0  0
 40 41  2  0  0  0  0
 40 99  1  0  0  0  0
 41 42  1  0  0  0  0
 41 43  1  0  0  0  0
 42100  1  0  0  0  0
 43 44  1  0  0  0  0
 43 56  2  0  0  0  0
 44 45  1  0  0  0  0
 44 54  2  0  0  0  0
 45 46  1  0  0  0  0
 45 47  2  0  0  0  0
 47 48  1  0  0  0  0
 47101  1  0  0  0  0
 48 49  1  0  0  0  0
 48 53  2  0  0  0  0
 49 50  2  0  0  0  0
 49 51  2  0  0  0  0
 49 52  1  0  0  0  0
 53 54  1  0  0  0  0
 53102  1  0  0  0  0
 54 55  1  0  0  0  0
 56 57  1  0  0  0  0
 56 78  1  0  0  0  0
 57 58  2  0  0  0  0
 58 59  1  0  0  0  0
 58 77  1  0  0  0  0
 59 60  1  0  0  0  0
 59 72  2  0  0  0  0
 60 61  1  0  0  0  0
 60 70  2  0  0  0  0
 61 62  1  0  0  0  0
 61 63  2  0  0  0  0
 63 64  1  0  0  0  0
 63103  1  0  0  0  0
 64 65  1  0  0  0  0
 64 69  2  0  0  0  0
 65 66  2  0  0  0  0
 65 67  2  0  0  0  0
 65 68  1  0  0  0  0
 69 70  1  0  0  0  0
 69104  1  0  0  0  0
 70 71  1  0  0  0  0
 72 73  1  0  0  0  0
 72 76  1  0  0  0  0
 73 74  2  0  0  0  0
 73105  1  0  0  0  0
 74 75  1  0  0  0  0
 74106  1  0  0  0  0
 75 76  1  0  0  0  0
 76107  1  0  0  0  0
 77 78  2  0  0  0  0
 77108  1  0  0  0  0
 78109  1  0  0  0  0
 79 80  2  0  0  0  0
 79110  1  0  0  0  0
 80111  1  0  0  0  0
 81 82  1  0  0  0  0
 81112  1  0  0  0  0
 82113  1  0  0  0  0
 83 84  1  0  0  0  0
 83 85  1  0  0  0  0
 84114  1  0  0  0  0
 85 86  1  0  0  0  0
M  CHG  3  34  -1  52  -1  68  -1
M  END
$$$$
