4_3_169
 OpenBabel01312312313D

143155  0  0  0  0  0  0  0  0999 V2000
    1.0033    0.2079    0.0364 C   0  0  0  0  0  0  0  0  0  0  0  0
    0.6079   -0.8377   -1.0044 C   0  0  0  0  0  0  0  0  0  0  0  0
    1.0142   -0.3598   -2.4104 C   0  0  0  0  0  0  0  0  0  0  0  0
    1.2958   -2.2023   -0.6858 C   0  0  0  0  0  0  0  0  0  0  0  0
    0.2446   -3.1651   -1.0496 C   0  0  0  0  0  0  0  0  0  0  0  0
    0.1281   -4.4826   -1.3716 C   0  0  0  0  0  0  0  0  0  0  0  0
    1.2370   -5.4268   -1.4232 C   0  0  0  0  0  0  0  0  0  0  0  0
    1.8352   -5.8859   -0.2461 C   0  0  0  0  0  0  0  0  0  0  0  0
    2.7589   -6.9360   -0.2930 C   0  0  0  0  0  0  0  0  0  0  0  0
    3.0754   -7.5429   -1.5090 C   0  0  0  0  0  0  0  0  0  0  0  0
    2.5072   -7.0707   -2.6875 C   0  0  0  0  0  0  0  0  0  0  0  0
    1.6157   -5.9984   -2.6455 C   0  0  0  0  0  0  0  0  0  0  0  0
   -1.2461   -4.6524   -1.8017 C   0  0  0  0  0  0  0  0  0  0  0  0
   -1.6664   -5.8379   -2.5344 C   0  0  0  0  0  0  0  0  0  0  0  0
   -1.5062   -7.1000   -1.9451 C   0  0  0  0  0  0  0  0  0  0  0  0
   -1.1166   -8.1834   -2.7410 C   0  0  0  0  0  0  0  0  0  0  0  0
   -0.9496   -8.0085   -4.1145 C   0  0  0  0  0  0  0  0  0  0  0  0
   -0.0746   -9.1711   -5.0252 Cl  0  0  0  0  0  0  0  0  0  0  0  0
   -1.2963   -6.8123   -4.7281 C   0  0  0  0  0  0  0  0  0  0  0  0
   -1.6251   -5.7234   -3.9297 C   0  0  0  0  0  0  0  0  0  0  0  0
   -1.9255   -3.4356   -1.6576 C   0  0  0  0  0  0  0  0  0  0  0  0
   -3.3726   -3.0339   -1.7895 C   0  0  0  0  0  0  0  0  0  0  0  0
   -3.8738   -2.5662   -3.1440 C   0  0  0  0  0  0  0  0  0  0  0  0
   -4.7534   -1.7137   -3.2567 O   0  0  0  0  0  0  0  0  0  0  0  0
   -3.3335   -3.2307   -4.1939 O   0  0  0  0  0  0  0  0  0  0  0  0
   -4.0073   -3.1221   -5.4624 C   0  0  0  0  0  0  0  0  0  0  0  0
   -4.1703   -4.5128   -6.0804 C   0  0  0  0  0  0  0  0  0  0  0  0
   -5.2952   -5.2591   -5.5769 O   0  0  0  0  0  0  0  0  0  0  0  0
   -5.1812   -5.7347   -4.3068 C   0  0  0  0  0  0  0  0  0  0  0  0
   -5.2390   -5.0646   -3.3066 O   0  0  0  0  0  0  0  0  0  0  0  0
   -4.9779   -7.2059   -4.3084 C   0  0  0  0  0  0  0  0  0  0  0  0
   -4.5803   -7.8103   -3.1130 C   0  0  0  0  0  0  0  0  0  0  0  0
   -4.1835   -9.1413   -3.1200 C   0  0  0  0  0  0  0  0  0  0  0  0
   -4.2012   -9.8747   -4.3153 C   0  0  0  0  0  0  0  0  0  0  0  0
   -3.8896  -11.3077   -4.2525 C   0  0  0  0  0  0  0  0  0  0  0  0
   -4.7560  -12.0298   -3.2832 C   0  0  0  0  0  0  0  0  0  0  0  0
   -4.3974  -12.6936   -2.2342 N   0  0  0  0  0  0  0  0  0  0  0  0
   -5.5791  -13.1981   -1.7028 C   0  0  0  0  0  0  0  0  0  0  0  0
   -5.6008  -14.3903   -1.0502 C   0  0  0  0  0  0  0  0  0  0  0  0
   -6.7212  -15.3838   -1.2286 C   0  0  0  0  0  0  0  0  0  0  0  0
   -6.8110  -16.4956   -0.3720 C   0  0  0  0  0  0  0  0  0  0  0  0
   -6.0456  -16.5718    0.7283 F   0  0  0  0  0  0  0  0  0  0  0  0
   -7.6267  -17.5910   -0.6607 C   0  0  0  0  0  0  0  0  0  0  0  0
   -8.4165  -17.5730   -1.8083 C   0  0  0  0  0  0  0  0  0  0  0  0
   -9.4020  -19.0160   -2.2366 S   0  0  0  0  0  0  0  0  0  0  0  0
   -8.3659  -19.9751   -2.6009 O   0  0  0  0  0  0  0  0  0  0  0  0
  -10.1103  -19.2782   -0.9884 O   0  0  0  0  0  0  0  0  0  0  0  0
  -10.2365  -18.5382   -3.3353 O   0  5  0  0  0  0  0  0  0  0  0  0
   -8.4116  -16.4768   -2.6507 C   0  0  0  0  0  0  0  0  0  0  0  0
   -7.5472  -15.4281   -2.3774 C   0  0  0  0  0  0  0  0  0  0  0  0
   -7.4826  -14.5069   -3.3462 F   0  0  0  0  0  0  0  0  0  0  0  0
   -4.2967  -14.7510   -0.5595 C   0  0  0  0  0  0  0  0  0  0  0  0
   -3.3787  -14.1364    0.2711 C   0  0  0  0  0  0  0  0  0  0  0  0
   -2.1059  -14.4548   -0.2808 C   0  0  0  0  0  0  0  0  0  0  0  0
   -2.3088  -15.3044   -1.3687 C   0  0  0  0  0  0  0  0  0  0  0  0
   -3.6041  -15.7331   -1.2247 N   0  0  0  0  0  0  0  0  0  0  0  0
   -1.4590  -15.6541   -2.4865 C   0  0  0  0  0  0  0  0  0  0  0  0
    0.0002  -15.2928   -2.3581 C   0  0  0  0  0  0  0  0  0  0  0  0
    0.6278  -14.2339   -3.0395 C   0  0  0  0  0  0  0  0  0  0  0  0
   -0.0450  -13.4926   -3.9312 F   0  0  0  0  0  0  0  0  0  0  0  0
    1.9490  -13.8650   -2.7678 C   0  0  0  0  0  0  0  0  0  0  0  0
    2.6539  -14.5406   -1.7711 C   0  0  0  0  0  0  0  0  0  0  0  0
    4.3348  -14.0180   -1.3618 S   0  0  0  0  0  0  0  0  0  0  0  0
    5.0911  -14.4798   -2.5207 O   0  0  0  0  0  0  0  0  0  0  0  0
    4.1982  -12.5701   -1.2291 O   0  0  0  0  0  0  0  0  0  0  0  0
    4.6172  -14.7228   -0.1131 O   0  5  0  0  0  0  0  0  0  0  0  0
    2.0541  -15.5749   -1.0574 C   0  0  0  0  0  0  0  0  0  0  0  0
    0.7485  -15.9453   -1.3659 C   0  0  0  0  0  0  0  0  0  0  0  0
    0.1876  -16.9244   -0.6365 F   0  0  0  0  0  0  0  0  0  0  0  0
   -1.9225  -16.0935   -3.6936 C   0  0  0  0  0  0  0  0  0  0  0  0
   -1.1698  -15.9481   -4.8499 N   0  0  0  0  0  0  0  0  0  0  0  0
   -2.0529  -15.8407   -5.8064 C   0  0  0  0  0  0  0  0  0  0  0  0
   -1.9376  -14.8615   -6.9184 C   0  0  0  0  0  0  0  0  0  0  0  0
   -2.0332  -15.2348   -8.3674 C   0  0  0  0  0  0  0  0  0  0  0  0
   -1.7355  -16.5334   -8.8273 C   0  0  0  0  0  0  0  0  0  0  0  0
   -1.1585  -17.4246   -8.0064 F   0  0  0  0  0  0  0  0  0  0  0  0
   -2.0810  -16.9768  -10.1160 C   0  0  0  0  0  0  0  0  0  0  0  0
   -2.7307  -16.1070  -10.9910 C   0  0  0  0  0  0  0  0  0  0  0  0
   -3.3710  -16.7127  -12.5721 S   0  0  0  0  0  0  0  0  0  0  0  0
   -2.1472  -16.9254  -13.3364 O   0  0  0  0  0  0  0  0  0  0  0  0
   -4.0925  -17.9162  -12.1728 O   0  0  0  0  0  0  0  0  0  0  0  0
   -4.2142  -15.6145  -13.0399 O   0  5  0  0  0  0  0  0  0  0  0  0
   -2.9914  -14.8026  -10.6038 C   0  0  0  0  0  0  0  0  0  0  0  0
   -2.6587  -14.3924   -9.3137 C   0  0  0  0  0  0  0  0  0  0  0  0
   -3.0623  -13.1555   -8.9942 F   0  0  0  0  0  0  0  0  0  0  0  0
   -2.0877  -13.6223   -6.3742 C   0  0  0  0  0  0  0  0  0  0  0  0
   -1.7584  -12.3359   -6.9531 C   0  0  0  0  0  0  0  0  0  0  0  0
   -2.2940  -11.3598   -6.1938 C   0  0  0  0  0  0  0  0  0  0  0  0
   -3.0324  -11.9470   -5.0780 C   0  0  0  0  0  0  0  0  0  0  0  0
   -2.6974  -13.2718   -5.1680 N   0  0  0  0  0  0  0  0  0  0  0  0
   -3.3785  -16.3505   -5.4858 C   0  0  0  0  0  0  0  0  0  0  0  0
   -3.2705  -16.4188   -4.1560 C   0  0  0  0  0  0  0  0  0  0  0  0
   -6.6543  -12.4584   -2.3078 C   0  0  0  0  0  0  0  0  0  0  0  0
   -6.2136  -11.8245   -3.3935 C   0  0  0  0  0  0  0  0  0  0  0  0
   -4.7158   -9.3021   -5.4782 C   0  0  0  0  0  0  0  0  0  0  0  0
   -5.0978   -7.9668   -5.4767 C   0  0  0  0  0  0  0  0  0  0  0  0
   -0.9728   -2.5705   -1.2030 N   0  0  0  0  0  0  0  0  0  0  0  0
   -0.9220   -1.1352   -0.9661 C   0  0  0  0  0  0  0  0  0  0  0  0
    2.0569    0.3858   -0.0192 H   0  0  0  0  0  0  0  0  0  0  0  0
    0.7530   -0.1491    1.0135 H   0  0  0  0  0  0  0  0  0  0  0  0
    0.4770    1.1194   -0.1560 H   0  0  0  0  0  0  0  0  0  0  0  0
    2.0648   -0.1578   -2.4287 H   0  0  0  0  0  0  0  0  0  0  0  0
    0.4752    0.5320   -2.6536 H   0  0  0  0  0  0  0  0  0  0  0  0
    0.7849   -1.1215   -3.1261 H   0  0  0  0  0  0  0  0  0  0  0  0
    1.5501   -2.2771    0.3508 H   0  0  0  0  0  0  0  0  0  0  0  0
    2.2185   -2.3529   -1.2062 H   0  0  0  0  0  0  0  0  0  0  0  0
    1.5954   -5.4501    0.6581 H   0  0  0  0  0  0  0  0  0  0  0  0
    3.2084   -7.2633    0.5764 H   0  0  0  0  0  0  0  0  0  0  0  0
    3.7298   -8.3405   -1.5339 H   0  0  0  0  0  0  0  0  0  0  0  0
    2.7442   -7.5120   -3.5898 H   0  0  0  0  0  0  0  0  0  0  0  0
    1.2303   -5.6214   -3.5255 H   0  0  0  0  0  0  0  0  0  0  0  0
   -1.6738   -7.2288   -0.9350 H   0  0  0  0  0  0  0  0  0  0  0  0
   -0.9535   -9.1082   -2.3131 H   0  0  0  0  0  0  0  0  0  0  0  0
   -1.3096   -6.7333   -5.7570 H   0  0  0  0  0  0  0  0  0  0  0  0
   -1.8422   -4.8165   -4.3717 H   0  0  0  0  0  0  0  0  0  0  0  0
   -3.5435   -2.2364   -1.0969 H   0  0  0  0  0  0  0  0  0  0  0  0
   -3.9134   -3.9393   -1.6084 H   0  0  0  0  0  0  0  0  0  0  0  0
   -3.4304   -2.5060   -6.1200 H   0  0  0  0  0  0  0  0  0  0  0  0
   -4.9725   -2.6845   -5.3147 H   0  0  0  0  0  0  0  0  0  0  0  0
   -3.2808   -5.0735   -5.8822 H   0  0  0  0  0  0  0  0  0  0  0  0
   -4.3452   -4.3642   -7.1255 H   0  0  0  0  0  0  0  0  0  0  0  0
   -4.5815   -7.2723   -2.2323 H   0  0  0  0  0  0  0  0  0  0  0  0
   -3.8751   -9.5914   -2.2441 H   0  0  0  0  0  0  0  0  0  0  0  0
   -7.6446  -18.4072   -0.0294 H   0  0  0  0  0  0  0  0  0  0  0  0
   -9.0402  -16.4399   -3.4683 H   0  0  0  0  0  0  0  0  0  0  0  0
   -3.5740  -13.5689    1.1106 H   0  0  0  0  0  0  0  0  0  0  0  0
   -1.1936  -14.1167    0.0632 H   0  0  0  0  0  0  0  0  0  0  0  0
   -3.9710  -16.5901   -1.5411 H   0  0  0  0  0  0  0  0  0  0  0  0
    2.3975  -13.1019   -3.2984 H   0  0  0  0  0  0  0  0  0  0  0  0
    2.5716  -16.0611   -0.3085 H   0  0  0  0  0  0  0  0  0  0  0  0
   -1.8553  -17.9393  -10.4122 H   0  0  0  0  0  0  0  0  0  0  0  0
   -3.4279  -14.1407  -11.2644 H   0  0  0  0  0  0  0  0  0  0  0  0
   -1.2024  -12.1902   -7.8102 H   0  0  0  0  0  0  0  0  0  0  0  0
   -2.1971  -10.3482   -6.3736 H   0  0  0  0  0  0  0  0  0  0  0  0
   -2.8709  -13.9191   -4.4468 H   0  0  0  0  0  0  0  0  0  0  0  0
   -4.1694  -16.5891   -6.1043 H   0  0  0  0  0  0  0  0  0  0  0  0
   -4.0490  -16.6720   -3.5276 H   0  0  0  0  0  0  0  0  0  0  0  0
   -7.6230  -12.4239   -1.9535 H   0  0  0  0  0  0  0  0  0  0  0  0
   -6.7492  -11.3229   -4.1192 H   0  0  0  0  0  0  0  0  0  0  0  0
   -4.8123   -9.8679   -6.3358 H   0  0  0  0  0  0  0  0  0  0  0  0
   -5.4701   -7.5357   -6.3373 H   0  0  0  0  0  0  0  0  0  0  0  0
   -1.4391   -0.5985   -1.7339 H   0  0  0  0  0  0  0  0  0  0  0  0
   -1.3904   -0.8382   -0.0510 H   0  0  0  0  0  0  0  0  0  0  0  0
  1  2  1  0  0  0  0
  1 99  1  0  0  0  0
  1100  1  0  0  0  0
  1101  1  0  0  0  0
  2  3  1  0  0  0  0
  2  4  1  0  0  0  0
  2 98  1  0  0  0  0
  3102  1  0  0  0  0
  3103  1  0  0  0  0
  3104  1  0  0  0  0
  4  5  1  0  0  0  0
  4105  1  0  0  0  0
  4106  1  0  0  0  0
  5  6  2  0  0  0  0
  5 97  1  0  0  0  0
  6  7  1  0  0  0  0
  6 13  1  0  0  0  0
  7  8  1  0  0  0  0
  7 12  2  0  0  0  0
  8  9  2  0  0  0  0
  8107  1  0  0  0  0
  9 10  1  0  0  0  0
  9108  1  0  0  0  0
 10 11  2  0  0  0  0
 10109  1  0  0  0  0
 11 12  1  0  0  0  0
 11110  1  0  0  0  0
 12111  1  0  0  0  0
 13 14  1  0  0  0  0
 13 21  2  0  0  0  0
 14 15  1  0  0  0  0
 14 20  2  0  0  0  0
 15 16  2  0  0  0  0
 15112  1  0  0  0  0
 16 17  1  0  0  0  0
 16113  1  0  0  0  0
 17 18  1  0  0  0  0
 17 19  2  0  0  0  0
 19 20  1  0  0  0  0
 19114  1  0  0  0  0
 20115  1  0  0  0  0
 21 22  1  0  0  0  0
 21 97  1  0  0  0  0
 22 23  1  0  0  0  0
 22116  1  0  0  0  0
 22117  1  0  0  0  0
 23 24  2  0  0  0  0
 23 25  1  0  0  0  0
 25 26  1  0  0  0  0
 26 27  1  0  0  0  0
 26118  1  0  0  0  0
 26119  1  0  0  0  0
 27 28  1  0  0  0  0
 27120  1  0  0  0  0
 27121  1  0  0  0  0
 28 29  1  0  0  0  0
 29 30  2  0  0  0  0
 29 31  1  0  0  0  0
 31 32  1  0  0  0  0
 31 96  2  0  0  0  0
 32 33  2  0  0  0  0
 32122  1  0  0  0  0
 33 34  1  0  0  0  0
 33123  1  0  0  0  0
 34 35  1  0  0  0  0
 34 95  2  0  0  0  0
 35 36  1  0  0  0  0
 35 89  2  0  0  0  0
 36 37  2  0  0  0  0
 36 94  1  0  0  0  0
 37 38  1  0  0  0  0
 38 39  2  0  0  0  0
 38 93  1  0  0  0  0
 39 40  1  0  0  0  0
 39 52  1  0  0  0  0
 40 41  1  0  0  0  0
 40 50  2  0  0  0  0
 41 42  1  0  0  0  0
 41 43  2  0  0  0  0
 43 44  1  0  0  0  0
 43124  1  0  0  0  0
 44 45  1  0  0  0  0
 44 49  2  0  0  0  0
 45 46  2  0  0  0  0
 45 47  2  0  0  0  0
 45 48  1  0  0  0  0
 49 50  1  0  0  0  0
 49125  1  0  0  0  0
 50 51  1  0  0  0  0
 52 53  2  0  0  0  0
 52 56  1  0  0  0  0
 53 54  1  0  0  0  0
 53126  1  0  0  0  0
 54 55  2  0  0  0  0
 54127  1  0  0  0  0
 55 56  1  0  0  0  0
 55 57  1  0  0  0  0
 56128  1  0  0  0  0
 57 58  1  0  0  0  0
 57 70  2  0  0  0  0
 58 59  1  0  0  0  0
 58 68  2  0  0  0  0
 59 60  1  0  0  0  0
 59 61  2  0  0  0  0
 61 62  1  0  0  0  0
 61129  1  0  0  0  0
 62 63  1  0  0  0  0
 62 67  2  0  0  0  0
 63 64  2  0  0  0  0
 63 65  2  0  0  0  0
 63 66  1  0  0  0  0
 67 68  1  0  0  0  0
 67130  1  0  0  0  0
 68 69  1  0  0  0  0
 70 71  1  0  0  0  0
 70 92  1  0  0  0  0
 71 72  2  0  0  0  0
 72 73  1  0  0  0  0
 72 91  1  0  0  0  0
 73 74  1  0  0  0  0
 73 86  2  0  0  0  0
 74 75  1  0  0  0  0
 74 84  2  0  0  0  0
 75 76  1  0  0  0  0
 75 77  2  0  0  0  0
 77 78  1  0  0  0  0
 77131  1  0  0  0  0
 78 79  1  0  0  0  0
 78 83  2  0  0  0  0
 79 80  2  0  0  0  0
 79 81  2  0  0  0  0
 79 82  1  0  0  0  0
 83 84  1  0  0  0  0
 83132  1  0  0  0  0
 84 85  1  0  0  0  0
 86 87  1  0  0  0  0
 86 90  1  0  0  0  0
 87 88  2  0  0  0  0
 87133  1  0  0  0  0
 88 89  1  0  0  0  0
 88134  1  0  0  0  0
 89 90  1  0  0  0  0
 90135  1  0  0  0  0
 91 92  2  0  0  0  0
 91136  1  0  0  0  0
 92137  1  0  0  0  0
 93 94  2  0  0  0  0
 93138  1  0  0  0  0
 94139  1  0  0  0  0
 95 96  1  0  0  0  0
 95140  1  0  0  0  0
 96141  1  0  0  0  0
 97 98  1  0  0  0  0
 98142  1  0  0  0  0
 98143  1  0  0  0  0
M  CHG  3  48  -1  66  -1  82  -1
M  END
$$$$
