4_3_3258
 OpenBabel04152301373D

128137  0  0  1  0  0  0  0  0999 V2000
    1.3832    0.0396    0.0304 C   0  0  0  0  0  0  0  0  0  0  0  0
    0.8117   -0.5484    1.3186 C   0  0  0  0  0  0  0  0  0  0  0  0
    1.0439    0.3248    2.5548 C   0  0  1  0  0  0  0  0  0  0  0  0
    0.3853    1.6465    2.4277 N   0  3  0  0  0  0  0  0  0  0  0  0
    0.7030   -0.2294    3.9786 C   0  0  0  0  0  0  0  0  0  0  0  0
    1.5367   -0.0639    4.8820 O   0  0  0  0  0  0  0  0  0  0  0  0
   -0.5603   -0.6866    4.2930 N   0  0  0  0  0  0  0  0  0  0  0  0
   -1.0415   -0.6239    5.6563 C   0  0  0  0  0  0  0  0  0  0  0  0
   -2.5269   -0.3559    5.4932 C   0  0  0  0  0  0  0  0  0  0  0  0
   -2.9122   -1.1445    4.2380 C   0  0  2  0  0  0  0  0  0  0  0  0
   -3.6763   -2.4205    4.5722 C   0  0  0  0  0  0  0  0  0  0  0  0
   -3.3462   -3.5602    4.2927 O   0  0  0  0  0  0  0  0  0  0  0  0
   -4.8689   -2.1091    5.1644 O   0  0  0  0  0  0  0  0  0  0  0  0
   -5.8089   -3.1948    5.2742 C   0  0  0  0  0  0  0  0  0  0  0  0
   -6.8748   -3.1125    4.1759 C   0  0  0  0  0  0  0  0  0  0  0  0
   -6.3184   -3.2707    2.8550 O   0  0  0  0  0  0  0  0  0  0  0  0
   -5.9619   -2.1189    2.2374 C   0  0  0  0  0  0  0  0  0  0  0  0
   -6.0700   -0.9870    2.6916 O   0  0  0  0  0  0  0  0  0  0  0  0
   -5.2770   -2.3980    0.9597 C   0  0  0  0  0  0  0  0  0  0  0  0
   -4.1044   -1.6870    0.6796 C   0  0  0  0  0  0  0  0  0  0  0  0
   -3.4324   -1.8758   -0.5257 C   0  0  0  0  0  0  0  0  0  0  0  0
   -3.9611   -2.7400   -1.4904 C   0  0  0  0  0  0  0  0  0  0  0  0
   -3.3254   -2.8101   -2.8270 C   0  0  0  0  0  0  0  0  0  0  0  0
   -3.8231   -1.9102   -3.9229 C   0  0  0  0  0  0  0  0  0  0  0  0
   -3.4346   -1.8306   -5.1685 N   0  0  0  0  0  0  0  0  0  0  0  0
   -4.2035   -0.8246   -5.7409 C   0  0  0  0  0  0  0  0  0  0  0  0
   -4.1621   -0.3468   -7.0072 C   0  0  0  0  0  0  0  0  0  0  0  0
   -5.1111    0.7620   -7.3627 C   0  0  0  0  0  0  0  0  0  0  0  0
   -4.9048    2.0762   -6.9151 C   0  0  0  0  0  0  0  0  0  0  0  0
   -3.8753    2.3596   -6.1014 F   0  0  0  0  0  0  0  0  0  0  0  0
   -5.7695    3.1073   -7.2676 C   0  0  0  0  0  0  0  0  0  0  0  0
   -6.8549    2.8279   -8.1003 C   0  0  0  0  0  0  0  0  0  0  0  0
   -7.9610    4.1791   -8.5587 S   0  0  0  0  0  0  0  0  0  0  0  0
   -8.6780    4.4051   -7.3075 O   0  0  0  0  0  0  0  0  0  0  0  0
   -7.0262    5.2285   -8.9516 O   0  0  0  0  0  0  0  0  0  0  0  0
   -8.7570    3.6141   -9.6439 O   0  5  0  0  0  0  0  0  0  0  0  0
   -7.0809    1.5375   -8.5775 C   0  0  0  0  0  0  0  0  0  0  0  0
   -6.2156    0.5173   -8.1942 C   0  0  0  0  0  0  0  0  0  0  0  0
   -6.4603   -0.7231   -8.6449 F   0  0  0  0  0  0  0  0  0  0  0  0
   -3.2855   -0.8489   -8.0329 C   0  0  0  0  0  0  0  0  0  0  0  0
   -3.1922   -0.4530   -9.3559 C   0  0  0  0  0  0  0  0  0  0  0  0
   -2.2312   -1.2516   -9.9851 C   0  0  0  0  0  0  0  0  0  0  0  0
   -1.6918   -2.1120   -9.0424 C   0  0  0  0  0  0  0  0  0  0  0  0
   -2.3535   -1.8600   -7.8522 N   0  0  0  0  0  0  0  0  0  0  0  0
   -0.6521   -3.0947   -9.2177 C   0  0  0  0  0  0  0  0  0  0  0  0
   -0.0223   -3.2078  -10.5790 C   0  0  0  0  0  0  0  0  0  0  0  0
   -0.2836   -4.2937  -11.4283 C   0  0  0  0  0  0  0  0  0  0  0  0
   -1.0686   -5.3011  -11.0149 F   0  0  0  0  0  0  0  0  0  0  0  0
    0.2762   -4.3720  -12.6999 C   0  0  0  0  0  0  0  0  0  0  0  0
    1.0960   -3.3334  -13.1465 C   0  0  0  0  0  0  0  0  0  0  0  0
    1.7859   -3.4272  -14.8125 S   0  0  0  0  0  0  0  0  0  0  0  0
    2.8425   -4.4181  -14.6379 O   0  0  0  0  0  0  0  0  0  0  0  0
    0.6375   -3.8578  -15.6041 O   0  0  0  0  0  0  0  0  0  0  0  0
    2.2395   -2.0635  -15.0695 O   0  5  0  0  0  0  0  0  0  0  0  0
    1.3601   -2.2291  -12.3377 C   0  0  0  0  0  0  0  0  0  0  0  0
    0.8108   -2.1842  -11.0603 C   0  0  0  0  0  0  0  0  0  0  0  0
    1.0840   -1.1176  -10.2921 F   0  0  0  0  0  0  0  0  0  0  0  0
   -0.1826   -3.9080   -8.2393 C   0  0  0  0  0  0  0  0  0  0  0  0
   -0.5517   -3.9723   -6.8989 N   0  0  0  0  0  0  0  0  0  0  0  0
    0.1863   -4.9186   -6.3680 C   0  0  0  0  0  0  0  0  0  0  0  0
    0.2350   -5.3952   -4.9375 C   0  0  0  0  0  0  0  0  0  0  0  0
    1.1661   -6.4862   -4.5411 C   0  0  0  0  0  0  0  0  0  0  0  0
    2.5558   -6.2950   -4.5498 C   0  0  0  0  0  0  0  0  0  0  0  0
    3.0659   -5.1014   -4.8900 F   0  0  0  0  0  0  0  0  0  0  0  0
    3.4364   -7.3312   -4.2549 C   0  0  0  0  0  0  0  0  0  0  0  0
    2.9197   -8.5835   -3.9178 C   0  0  0  0  0  0  0  0  0  0  0  0
    4.0678   -9.9225   -3.5296 S   0  0  0  0  0  0  0  0  0  0  0  0
    4.5581  -10.2806   -4.8554 O   0  0  0  0  0  0  0  0  0  0  0  0
    5.0270   -9.2611   -2.6506 O   0  0  0  0  0  0  0  0  0  0  0  0
    3.2161  -10.9153   -2.8811 O   0  5  0  0  0  0  0  0  0  0  0  0
    1.5439   -8.8014   -3.8639 C   0  0  0  0  0  0  0  0  0  0  0  0
    0.6845   -7.7570   -4.1893 C   0  0  0  0  0  0  0  0  0  0  0  0
   -0.6367   -7.9910   -4.1566 F   0  0  0  0  0  0  0  0  0  0  0  0
   -0.5938   -4.8412   -4.0302 C   0  0  0  0  0  0  0  0  0  0  0  0
   -0.6697   -5.1936   -2.6138 C   0  0  0  0  0  0  0  0  0  0  0  0
   -1.6695   -4.5016   -2.0392 C   0  0  0  0  0  0  0  0  0  0  0  0
   -2.2834   -3.6333   -3.0437 C   0  0  0  0  0  0  0  0  0  0  0  0
   -1.5583   -3.8736   -4.1838 N   0  0  0  0  0  0  0  0  0  0  0  0
    1.0825   -5.5860   -7.3237 C   0  0  0  0  0  0  0  0  0  0  0  0
    0.8471   -4.9061   -8.4374 C   0  0  0  0  0  0  0  0  0  0  0  0
   -5.0988   -0.3387   -4.7125 C   0  0  0  0  0  0  0  0  0  0  0  0
   -4.8940   -0.9665   -3.5629 C   0  0  0  0  0  0  0  0  0  0  0  0
   -5.1438   -3.4476   -1.2130 C   0  0  0  0  0  0  0  0  0  0  0  0
   -5.7987   -3.2850    0.0150 C   0  0  0  0  0  0  0  0  0  0  0  0
   -1.5925   -1.2502    3.4227 C   0  0  2  0  0  0  0  0  0  0  0  0
   -1.1852   -2.6542    2.9754 C   0  0  0  0  0  0  0  0  0  0  0  0
    1.1823   -0.6241   -0.7845 H   0  0  0  0  0  0  0  0  0  0  0  0
    2.4405    0.1666    0.1346 H   0  0  0  0  0  0  0  0  0  0  0  0
    0.9273    0.9884   -0.1616 H   0  0  0  0  0  0  0  0  0  0  0  0
    1.2706   -1.5002    1.4872 H   0  0  0  0  0  0  0  0  0  0  0  0
   -0.2473   -0.6214    1.1840 H   0  0  0  0  0  0  0  0  0  0  0  0
    2.1128    0.3676    2.5332 H   0  0  0  0  0  0  0  0  0  0  0  0
   -0.6272    1.5260    2.4565 H   0  0  0  0  0  0  0  0  0  0  0  0
    0.6516    2.0753    1.5413 H   0  0  0  0  0  0  0  0  0  0  0  0
    0.6782    2.2478    3.1978 H   0  0  0  0  0  0  0  0  0  0  0  0
   -0.5661    0.1696    6.1940 H   0  0  0  0  0  0  0  0  0  0  0  0
   -0.8364   -1.5143    6.2130 H   0  0  0  0  0  0  0  0  0  0  0  0
   -2.7118    0.6892    5.3570 H   0  0  0  0  0  0  0  0  0  0  0  0
   -3.0940   -0.6479    6.3523 H   0  0  0  0  0  0  0  0  0  0  0  0
   -3.6400   -0.6705    3.6131 H   0  0  0  0  0  0  0  0  0  0  0  0
   -6.2873   -3.1480    6.2301 H   0  0  0  0  0  0  0  0  0  0  0  0
   -5.2780   -4.1174    5.1652 H   0  0  0  0  0  0  0  0  0  0  0  0
   -7.3549   -2.1580    4.2342 H   0  0  0  0  0  0  0  0  0  0  0  0
   -7.5685   -3.9115    4.3349 H   0  0  0  0  0  0  0  0  0  0  0  0
   -3.7345   -1.0171    1.3721 H   0  0  0  0  0  0  0  0  0  0  0  0
   -2.5461   -1.3791   -0.7068 H   0  0  0  0  0  0  0  0  0  0  0  0
   -5.6110    4.0654   -6.9185 H   0  0  0  0  0  0  0  0  0  0  0  0
   -7.8768    1.3422   -9.2047 H   0  0  0  0  0  0  0  0  0  0  0  0
   -3.7376    0.3014   -9.8014 H   0  0  0  0  0  0  0  0  0  0  0  0
   -1.9686   -1.2074  -10.9822 H   0  0  0  0  0  0  0  0  0  0  0  0
   -2.1869   -2.3294   -7.0030 H   0  0  0  0  0  0  0  0  0  0  0  0
    0.0880   -5.1867  -13.3048 H   0  0  0  0  0  0  0  0  0  0  0  0
    1.9534   -1.4576  -12.6809 H   0  0  0  0  0  0  0  0  0  0  0  0
    4.4563   -7.1763   -4.2849 H   0  0  0  0  0  0  0  0  0  0  0  0
    1.1691   -9.7223   -3.5872 H   0  0  0  0  0  0  0  0  0  0  0  0
   -0.0539   -5.8666   -2.1312 H   0  0  0  0  0  0  0  0  0  0  0  0
   -1.9569   -4.5717   -1.0505 H   0  0  0  0  0  0  0  0  0  0  0  0
   -1.7141   -3.3980   -5.0316 H   0  0  0  0  0  0  0  0  0  0  0  0
    1.7266   -6.3772   -7.1682 H   0  0  0  0  0  0  0  0  0  0  0  0
    1.3358   -5.0679   -9.3318 H   0  0  0  0  0  0  0  0  0  0  0  0
   -5.8048    0.4003   -4.8556 H   0  0  0  0  0  0  0  0  0  0  0  0
   -5.3626   -0.8295   -2.6537 H   0  0  0  0  0  0  0  0  0  0  0  0
   -5.5327   -4.0918   -1.9193 H   0  0  0  0  0  0  0  0  0  0  0  0
   -6.6594   -3.8162    0.2199 H   0  0  0  0  0  0  0  0  0  0  0  0
   -1.7303   -0.7298    2.4980 H   0  0  0  0  0  0  0  0  0  0  0  0
   -1.0197   -3.2686    3.8356 H   0  0  0  0  0  0  0  0  0  0  0  0
   -0.2855   -2.5979    2.3989 H   0  0  0  0  0  0  0  0  0  0  0  0
   -1.9653   -3.0787    2.3786 H   0  0  0  0  0  0  0  0  0  0  0  0
  1  2  1  0  0  0  0
  1 87  1  0  0  0  0
  1 88  1  0  0  0  0
  1 89  1  0  0  0  0
  2  3  1  0  0  0  0
  2 90  1  0  0  0  0
  2 91  1  0  0  0  0
  3  4  1  0  0  0  0
  3  5  1  0  0  0  0
  3 92  1  1  0  0  0
  4 93  1  0  0  0  0
  4 94  1  0  0  0  0
  4 95  1  0  0  0  0
  5  6  2  0  0  0  0
  5  7  1  0  0  0  0
  7  8  1  0  0  0  0
  7 85  1  0  0  0  0
  8  9  1  0  0  0  0
  8 96  1  0  0  0  0
  8 97  1  0  0  0  0
  9 10  1  0  0  0  0
  9 98  1  0  0  0  0
  9 99  1  0  0  0  0
 10 85  1  0  0  0  0
 10 11  1  0  0  0  0
 10100  1  6  0  0  0
 11 12  2  0  0  0  0
 11 13  1  0  0  0  0
 13 14  1  0  0  0  0
 14 15  1  0  0  0  0
 14101  1  0  0  0  0
 14102  1  0  0  0  0
 15 16  1  0  0  0  0
 15103  1  0  0  0  0
 15104  1  0  0  0  0
 16 17  1  0  0  0  0
 17 18  2  0  0  0  0
 17 19  1  0  0  0  0
 19 20  1  0  0  0  0
 19 84  2  0  0  0  0
 20 21  2  0  0  0  0
 20105  1  0  0  0  0
 21 22  1  0  0  0  0
 21106  1  0  0  0  0
 22 23  1  0  0  0  0
 22 83  2  0  0  0  0
 23 24  1  0  0  0  0
 23 77  2  0  0  0  0
 24 25  2  0  0  0  0
 24 82  1  0  0  0  0
 25 26  1  0  0  0  0
 26 27  2  0  0  0  0
 26 81  1  0  0  0  0
 27 28  1  0  0  0  0
 27 40  1  0  0  0  0
 28 29  1  0  0  0  0
 28 38  2  0  0  0  0
 29 30  1  0  0  0  0
 29 31  2  0  0  0  0
 31 32  1  0  0  0  0
 31107  1  0  0  0  0
 32 33  1  0  0  0  0
 32 37  2  0  0  0  0
 33 34  2  0  0  0  0
 33 35  2  0  0  0  0
 33 36  1  0  0  0  0
 37 38  1  0  0  0  0
 37108  1  0  0  0  0
 38 39  1  0  0  0  0
 40 41  2  0  0  0  0
 40 44  1  0  0  0  0
 41 42  1  0  0  0  0
 41109  1  0  0  0  0
 42 43  2  0  0  0  0
 42110  1  0  0  0  0
 43 44  1  0  0  0  0
 43 45  1  0  0  0  0
 44111  1  0  0  0  0
 45 46  1  0  0  0  0
 45 58  2  0  0  0  0
 46 47  1  0  0  0  0
 46 56  2  0  0  0  0
 47 48  1  0  0  0  0
 47 49  2  0  0  0  0
 49 50  1  0  0  0  0
 49112  1  0  0  0  0
 50 51  1  0  0  0  0
 50 55  2  0  0  0  0
 51 52  2  0  0  0  0
 51 53  2  0  0  0  0
 51 54  1  0  0  0  0
 55 56  1  0  0  0  0
 55113  1  0  0  0  0
 56 57  1  0  0  0  0
 58 59  1  0  0  0  0
 58 80  1  0  0  0  0
 59 60  2  0  0  0  0
 60 61  1  0  0  0  0
 60 79  1  0  0  0  0
 61 62  1  0  0  0  0
 61 74  2  0  0  0  0
 62 63  1  0  0  0  0
 62 72  2  0  0  0  0
 63 64  1  0  0  0  0
 63 65  2  0  0  0  0
 65 66  1  0  0  0  0
 65114  1  0  0  0  0
 66 67  1  0  0  0  0
 66 71  2  0  0  0  0
 67 68  2  0  0  0  0
 67 69  2  0  0  0  0
 67 70  1  0  0  0  0
 71 72  1  0  0  0  0
 71115  1  0  0  0  0
 72 73  1  0  0  0  0
 74 75  1  0  0  0  0
 74 78  1  0  0  0  0
 75 76  2  0  0  0  0
 75116  1  0  0  0  0
 76 77  1  0  0  0  0
 76117  1  0  0  0  0
 77 78  1  0  0  0  0
 78118  1  0  0  0  0
 79 80  2  0  0  0  0
 79119  1  0  0  0  0
 80120  1  0  0  0  0
 81 82  2  0  0  0  0
 81121  1  0  0  0  0
 82122  1  0  0  0  0
 83 84  1  0  0  0  0
 83123  1  0  0  0  0
 84124  1  0  0  0  0
 85 86  1  0  0  0  0
 85125  1  6  0  0  0
 86126  1  0  0  0  0
 86127  1  0  0  0  0
 86128  1  0  0  0  0
M  CHG  4   4   1  36  -1  54  -1  70  -1
M  END
$$$$
