4_4_1609
 OpenBabel04152301363D

161173  0  0  1  0  0  0  0  0999 V2000
    0.6644    1.3819    0.6062 O   0  0  0  0  0  0  0  0  0  0  0  0
    1.8858    1.2198    0.6021 C   0  0  0  0  0  0  0  0  0  0  0  0
    2.3669    0.1262    1.2346 O   0  0  0  0  0  0  0  0  0  0  0  0
    3.7176   -0.3514    1.2954 C   0  0  0  0  0  0  0  0  0  0  0  0
    4.0051   -1.2947    0.1291 C   0  0  0  0  0  0  0  0  0  0  0  0
    3.9266   -0.6223   -1.1268 O   0  0  0  0  0  0  0  0  0  0  0  0
    2.7083   -0.7986   -1.8537 C   0  0  0  0  0  0  0  0  0  0  0  0
    2.9936   -1.7643   -2.9806 C   0  0  0  0  0  0  0  0  0  0  0  0
    3.5527   -2.9143   -2.3411 O   0  0  0  0  0  0  0  0  0  0  0  0
    4.8704   -3.1506   -2.4819 C   0  0  0  0  0  0  0  0  0  0  0  0
    5.6600   -2.5436   -3.1848 O   0  0  0  0  0  0  0  0  0  0  0  0
    5.2485   -4.2210   -1.5268 C   0  0  0  0  0  0  0  0  0  0  0  0
    6.4806   -3.9772   -0.8697 C   0  0  0  0  0  0  0  0  0  0  0  0
    6.9720   -4.8609    0.0803 C   0  0  0  0  0  0  0  0  0  0  0  0
    8.1967   -4.7031    0.7464 N   0  0  0  0  0  0  0  0  0  0  0  0
    8.9700   -3.5947    0.9987 C   0  0  0  0  0  0  0  0  0  0  0  0
   10.1399   -3.7288    1.3553 O   0  0  0  0  0  0  0  0  0  0  0  0
    8.4034   -2.2356    0.9855 C   0  0  0  0  0  0  0  0  0  0  0  0
    8.8942   -1.3230    0.0423 C   0  0  0  0  0  0  0  0  0  0  0  0
    8.4602    0.0042    0.0634 C   0  0  0  0  0  0  0  0  0  0  0  0
    7.5762    0.4342    1.0519 C   0  0  0  0  0  0  0  0  0  0  0  0
    7.1185   -0.4645    2.0173 C   0  0  0  0  0  0  0  0  0  0  0  0
    7.5188   -1.8044    1.9810 C   0  0  0  0  0  0  0  0  0  0  0  0
    6.9022   -2.8550    3.2060 Cl  0  0  0  0  0  0  0  0  0  0  0  0
    6.2486   -6.0209    0.3365 C   0  0  0  0  0  0  0  0  0  0  0  0
    5.0173   -6.2508   -0.2929 C   0  0  0  0  0  0  0  0  0  0  0  0
    4.4569   -5.3577   -1.2281 C   0  0  0  0  0  0  0  0  0  0  0  0
    3.2316   -5.7021   -1.7948 N   0  0  0  0  0  0  0  0  0  0  0  0
    2.1096   -6.0797   -0.9252 C   0  0  0  0  0  0  0  0  0  0  0  0
    1.2889   -7.1825   -1.6003 C   0  0  0  0  0  0  0  0  0  0  0  0
    0.9168   -6.8357   -3.0444 C   0  0  0  0  0  0  0  0  0  0  0  0
    2.1231   -6.3773   -3.8795 C   0  0  2  0  0  0  0  0  0  0  0  0
    3.1824   -7.4407   -4.2394 C   0  0  0  0  0  0  0  0  0  0  0  0
    2.9639   -8.2762   -5.4203 N   0  3  0  0  0  0  0  0  0  0  0  0
    2.8162   -7.5324   -6.6724 C   0  0  0  0  0  0  0  0  0  0  0  0
    1.3273   -7.4862   -6.9608 C   0  0  0  0  0  0  0  0  0  0  0  0
    0.7501   -8.6898   -6.2365 C   0  0  0  0  0  0  0  0  0  0  0  0
    1.8537   -9.2105   -5.3273 C   0  0  0  0  0  0  0  0  0  0  0  0
    2.8202   -5.2556   -3.1280 C   0  0  0  0  0  0  0  0  0  0  0  0
    2.7134    2.2403   -0.1261 C   0  0  0  0  0  0  0  0  0  0  0  0
    4.0086    2.0618   -0.6230 C   0  0  0  0  0  0  0  0  0  0  0  0
    4.5997    2.9685   -1.4867 C   0  0  0  0  0  0  0  0  0  0  0  0
    3.9421    4.1516   -1.7798 C   0  0  0  0  0  0  0  0  0  0  0  0
    4.7037    5.1876   -2.4787 C   0  0  0  0  0  0  0  0  0  0  0  0
    5.4367    6.1705   -1.6283 C   0  0  0  0  0  0  0  0  0  0  0  0
    6.0567    7.2605   -1.9722 N   0  0  0  0  0  0  0  0  0  0  0  0
    6.5249    7.8067   -0.7849 C   0  0  0  0  0  0  0  0  0  0  0  0
    7.1894    8.9714   -0.6214 C   0  0  0  0  0  0  0  0  0  0  0  0
    7.4728    9.3975    0.7907 C   0  0  0  0  0  0  0  0  0  0  0  0
    8.3958    8.7235    1.6078 C   0  0  0  0  0  0  0  0  0  0  0  0
    9.1018    7.6902    1.1208 F   0  0  0  0  0  0  0  0  0  0  0  0
    8.5380    9.0368    2.9570 C   0  0  0  0  0  0  0  0  0  0  0  0
    7.7653   10.0649    3.4998 C   0  0  0  0  0  0  0  0  0  0  0  0
    7.9122   10.4208    5.2636 S   0  0  0  0  0  0  0  0  0  0  0  0
    7.2115    9.2815    5.8487 O   0  0  0  0  0  0  0  0  0  0  0  0
    9.3582   10.4424    5.4588 O   0  0  0  0  0  0  0  0  0  0  0  0
    7.2434   11.7100    5.4073 O   0  5  0  0  0  0  0  0  0  0  0  0
    6.8785   10.7909    2.7070 C   0  0  0  0  0  0  0  0  0  0  0  0
    6.7319   10.4416    1.3680 C   0  0  0  0  0  0  0  0  0  0  0  0
    5.8221   11.1079    0.6402 F   0  0  0  0  0  0  0  0  0  0  0  0
    7.5147    9.8261   -1.7289 C   0  0  0  0  0  0  0  0  0  0  0  0
    8.1068   11.0720   -1.7206 C   0  0  0  0  0  0  0  0  0  0  0  0
    8.1634   11.5253   -3.0438 C   0  0  0  0  0  0  0  0  0  0  0  0
    7.6646   10.5358   -3.8826 C   0  0  0  0  0  0  0  0  0  0  0  0
    7.2555    9.5068   -3.0592 N   0  0  0  0  0  0  0  0  0  0  0  0
    7.5852   10.5449   -5.3257 C   0  0  0  0  0  0  0  0  0  0  0  0
    8.1873   11.7354   -6.0098 C   0  0  0  0  0  0  0  0  0  0  0  0
    7.3935   12.7564   -6.5494 C   0  0  0  0  0  0  0  0  0  0  0  0
    6.0570   12.6344   -6.5738 F   0  0  0  0  0  0  0  0  0  0  0  0
    7.9648   13.9104   -7.0709 C   0  0  0  0  0  0  0  0  0  0  0  0
    9.3539   14.0569   -7.0317 C   0  0  0  0  0  0  0  0  0  0  0  0
   10.0767   15.5962   -7.6327 S   0  0  0  0  0  0  0  0  0  0  0  0
    9.9306   15.4443   -9.0764 O   0  0  0  0  0  0  0  0  0  0  0  0
    9.2237   16.6042   -7.0106 O   0  0  0  0  0  0  0  0  0  0  0  0
   11.4466   15.5469   -7.1306 O   0  5  0  0  0  0  0  0  0  0  0  0
   10.1713   13.0592   -6.5027 C   0  0  0  0  0  0  0  0  0  0  0  0
    9.5814   11.9026   -6.0119 C   0  0  0  0  0  0  0  0  0  0  0  0
   10.3774   10.9534   -5.4940 F   0  0  0  0  0  0  0  0  0  0  0  0
    7.0529    9.5800   -6.1180 C   0  0  0  0  0  0  0  0  0  0  0  0
    6.4876    8.3617   -5.7674 N   0  0  0  0  0  0  0  0  0  0  0  0
    6.1264    7.7887   -6.8950 C   0  0  0  0  0  0  0  0  0  0  0  0
    5.4730    6.4469   -7.0992 C   0  0  0  0  0  0  0  0  0  0  0  0
    5.0799    5.9419   -8.4424 C   0  0  0  0  0  0  0  0  0  0  0  0
    6.0384    5.5521   -9.3879 C   0  0  0  0  0  0  0  0  0  0  0  0
    7.3445    5.6877   -9.1131 F   0  0  0  0  0  0  0  0  0  0  0  0
    5.6731    5.0216  -10.6237 C   0  0  0  0  0  0  0  0  0  0  0  0
    4.3182    4.8582  -10.9205 C   0  0  0  0  0  0  0  0  0  0  0  0
    3.8571    4.1020  -12.4956 S   0  0  0  0  0  0  0  0  0  0  0  0
    4.2016    5.1571  -13.4415 O   0  0  0  0  0  0  0  0  0  0  0  0
    4.7059    2.9151  -12.5251 O   0  0  0  0  0  0  0  0  0  0  0  0
    2.4298    3.8380  -12.3376 O   0  5  0  0  0  0  0  0  0  0  0  0
    3.3362    5.2348  -10.0071 C   0  0  0  0  0  0  0  0  0  0  0  0
    3.7263    5.7852   -8.7895 C   0  0  0  0  0  0  0  0  0  0  0  0
    2.7644    6.1332   -7.9203 F   0  0  0  0  0  0  0  0  0  0  0  0
    5.1965    5.7217   -5.9992 C   0  0  0  0  0  0  0  0  0  0  0  0
    4.5190    4.4299   -5.9629 C   0  0  0  0  0  0  0  0  0  0  0  0
    4.2508    4.1187   -4.6836 C   0  0  0  0  0  0  0  0  0  0  0  0
    4.8036    5.1615   -3.8163 C   0  0  0  0  0  0  0  0  0  0  0  0
    5.4069    6.0330   -4.6777 N   0  0  0  0  0  0  0  0  0  0  0  0
    6.3968    8.5907   -8.0918 C   0  0  0  0  0  0  0  0  0  0  0  0
    6.9828    9.6599   -7.5665 C   0  0  0  0  0  0  0  0  0  0  0  0
    6.1406    6.9189    0.2865 C   0  0  0  0  0  0  0  0  0  0  0  0
    5.4826    5.8735   -0.1841 C   0  0  0  0  0  0  0  0  0  0  0  0
    2.6812    4.4108   -1.2382 C   0  0  0  0  0  0  0  0  0  0  0  0
    2.0680    3.4512   -0.4317 C   0  0  0  0  0  0  0  0  0  0  0  0
    3.8645   -0.8756    2.2166 H   0  0  0  0  0  0  0  0  0  0  0  0
    4.3829    0.4845    1.2362 H   0  0  0  0  0  0  0  0  0  0  0  0
    3.2891   -2.0897    0.1418 H   0  0  0  0  0  0  0  0  0  0  0  0
    4.9999   -1.6718    0.2433 H   0  0  0  0  0  0  0  0  0  0  0  0
    2.3791    0.1393   -2.2497 H   0  0  0  0  0  0  0  0  0  0  0  0
    1.9377   -1.1778   -1.2155 H   0  0  0  0  0  0  0  0  0  0  0  0
    3.6913   -1.3410   -3.6726 H   0  0  0  0  0  0  0  0  0  0  0  0
    2.1145   -2.0013   -3.5427 H   0  0  0  0  0  0  0  0  0  0  0  0
    7.0207   -3.1289   -1.1016 H   0  0  0  0  0  0  0  0  0  0  0  0
    8.5722   -5.5422    1.0987 H   0  0  0  0  0  0  0  0  0  0  0  0
    9.5764   -1.6316   -0.6679 H   0  0  0  0  0  0  0  0  0  0  0  0
    8.7942    0.6673   -0.6534 H   0  0  0  0  0  0  0  0  0  0  0  0
    7.2602    1.4165    1.0700 H   0  0  0  0  0  0  0  0  0  0  0  0
    6.4818   -0.1388    2.7613 H   0  0  0  0  0  0  0  0  0  0  0  0
    6.6224   -6.7200    0.9972 H   0  0  0  0  0  0  0  0  0  0  0  0
    4.4982   -7.1121   -0.0612 H   0  0  0  0  0  0  0  0  0  0  0  0
    1.4876   -5.2259   -0.7546 H   0  0  0  0  0  0  0  0  0  0  0  0
    2.4877   -6.4380    0.0094 H   0  0  0  0  0  0  0  0  0  0  0  0
    0.3893   -7.3322   -1.0406 H   0  0  0  0  0  0  0  0  0  0  0  0
    1.8899   -8.0675   -1.6230 H   0  0  0  0  0  0  0  0  0  0  0  0
    0.1922   -6.0485   -3.0306 H   0  0  0  0  0  0  0  0  0  0  0  0
    0.5309   -7.7243   -3.4987 H   0  0  0  0  0  0  0  0  0  0  0  0
    1.7023   -6.0865   -4.8193 H   0  0  0  0  0  0  0  0  0  0  0  0
    3.2672   -8.0981   -3.3994 H   0  0  0  0  0  0  0  0  0  0  0  0
    4.0535   -6.8689   -4.4824 H   0  0  0  0  0  0  0  0  0  0  0  0
    3.8343   -8.8077   -5.4395 H   0  0  0  0  0  0  0  0  0  0  0  0
    3.3326   -8.0327   -7.4648 H   0  0  0  0  0  0  0  0  0  0  0  0
    3.2301   -6.5488   -6.5941 H   0  0  0  0  0  0  0  0  0  0  0  0
    1.1455   -7.5574   -8.0128 H   0  0  0  0  0  0  0  0  0  0  0  0
    0.8827   -6.5692   -6.6348 H   0  0  0  0  0  0  0  0  0  0  0  0
    0.4633   -9.4432   -6.9401 H   0  0  0  0  0  0  0  0  0  0  0  0
   -0.1226   -8.4253   -5.6768 H   0  0  0  0  0  0  0  0  0  0  0  0
    1.5027   -9.2634   -4.3179 H   0  0  0  0  0  0  0  0  0  0  0  0
    2.1580  -10.1927   -5.6234 H   0  0  0  0  0  0  0  0  0  0  0  0
    3.6853   -4.9490   -3.6781 H   0  0  0  0  0  0  0  0  0  0  0  0
    2.1385   -4.4378   -3.0214 H   0  0  0  0  0  0  0  0  0  0  0  0
    4.5418    1.2260   -0.3362 H   0  0  0  0  0  0  0  0  0  0  0  0
    5.5199    2.7649   -1.9072 H   0  0  0  0  0  0  0  0  0  0  0  0
    9.2053    8.5162    3.5475 H   0  0  0  0  0  0  0  0  0  0  0  0
    6.3392   11.5749    3.1065 H   0  0  0  0  0  0  0  0  0  0  0  0
    8.4469   11.5788   -0.8884 H   0  0  0  0  0  0  0  0  0  0  0  0
    8.5182   12.4456   -3.3474 H   0  0  0  0  0  0  0  0  0  0  0  0
    6.8407    8.6688   -3.3675 H   0  0  0  0  0  0  0  0  0  0  0  0
    7.3719   14.6487   -7.4813 H   0  0  0  0  0  0  0  0  0  0  0  0
   11.1961   13.1784   -6.4765 H   0  0  0  0  0  0  0  0  0  0  0  0
    6.3946    4.7529  -11.3109 H   0  0  0  0  0  0  0  0  0  0  0  0
    2.3364    5.1079  -10.2293 H   0  0  0  0  0  0  0  0  0  0  0  0
    4.2845    3.8508   -6.7843 H   0  0  0  0  0  0  0  0  0  0  0  0
    3.7388    3.2815   -4.3642 H   0  0  0  0  0  0  0  0  0  0  0  0
    5.9390    6.8065   -4.3814 H   0  0  0  0  0  0  0  0  0  0  0  0
    6.1873    8.3801   -9.0801 H   0  0  0  0  0  0  0  0  0  0  0  0
    7.3447   10.4519   -8.1203 H   0  0  0  0  0  0  0  0  0  0  0  0
    6.3510    7.0786    1.2841 H   0  0  0  0  0  0  0  0  0  0  0  0
    5.1007    5.0616    0.3257 H   0  0  0  0  0  0  0  0  0  0  0  0
    2.2061    5.3060   -1.4331 H   0  0  0  0  0  0  0  0  0  0  0  0
    1.1253    3.6335   -0.0534 H   0  0  0  0  0  0  0  0  0  0  0  0
  1  2  2  0  0  0  0
  2  3  1  0  0  0  0
  2 40  1  0  0  0  0
  3  4  1  0  0  0  0
  4  5  1  0  0  0  0
  4106  1  0  0  0  0
  4107  1  0  0  0  0
  5  6  1  0  0  0  0
  5108  1  0  0  0  0
  5109  1  0  0  0  0
  6  7  1  0  0  0  0
  7  8  1  0  0  0  0
  7110  1  0  0  0  0
  7111  1  0  0  0  0
  8  9  1  0  0  0  0
  8112  1  0  0  0  0
  8113  1  0  0  0  0
  9 10  1  0  0  0  0
 10 11  2  0  0  0  0
 10 12  1  0  0  0  0
 12 13  1  0  0  0  0
 12 27  2  0  0  0  0
 13 14  2  0  0  0  0
 13114  1  0  0  0  0
 14 15  1  0  0  0  0
 14 25  1  0  0  0  0
 15 16  1  0  0  0  0
 15115  1  0  0  0  0
 16 17  2  0  0  0  0
 16 18  1  0  0  0  0
 18 19  1  0  0  0  0
 18 23  2  0  0  0  0
 19 20  2  0  0  0  0
 19116  1  0  0  0  0
 20 21  1  0  0  0  0
 20117  1  0  0  0  0
 21 22  2  0  0  0  0
 21118  1  0  0  0  0
 22 23  1  0  0  0  0
 22119  1  0  0  0  0
 23 24  1  0  0  0  0
 25 26  2  0  0  0  0
 25120  1  0  0  0  0
 26 27  1  0  0  0  0
 26121  1  0  0  0  0
 27 28  1  0  0  0  0
 28 29  1  0  0  0  0
 28 39  1  0  0  0  0
 29 30  1  0  0  0  0
 29122  1  0  0  0  0
 29123  1  0  0  0  0
 30 31  1  0  0  0  0
 30124  1  0  0  0  0
 30125  1  0  0  0  0
 31 32  1  0  0  0  0
 31126  1  0  0  0  0
 31127  1  0  0  0  0
 32 33  1  0  0  0  0
 32 39  1  0  0  0  0
 32128  1  6  0  0  0
 33 34  1  0  0  0  0
 33129  1  0  0  0  0
 33130  1  0  0  0  0
 34 35  1  0  0  0  0
 34 38  1  0  0  0  0
 34131  1  0  0  0  0
 35 36  1  0  0  0  0
 35132  1  0  0  0  0
 35133  1  0  0  0  0
 36 37  1  0  0  0  0
 36134  1  0  0  0  0
 36135  1  0  0  0  0
 37 38  1  0  0  0  0
 37136  1  0  0  0  0
 37137  1  0  0  0  0
 38138  1  0  0  0  0
 38139  1  0  0  0  0
 39140  1  0  0  0  0
 39141  1  0  0  0  0
 40 41  1  0  0  0  0
 40105  2  0  0  0  0
 41 42  2  0  0  0  0
 41142  1  0  0  0  0
 42 43  1  0  0  0  0
 42143  1  0  0  0  0
 43 44  1  0  0  0  0
 43104  2  0  0  0  0
 44 45  1  0  0  0  0
 44 98  2  0  0  0  0
 45 46  2  0  0  0  0
 45103  1  0  0  0  0
 46 47  1  0  0  0  0
 47 48  2  0  0  0  0
 47102  1  0  0  0  0
 48 49  1  0  0  0  0
 48 61  1  0  0  0  0
 49 50  1  0  0  0  0
 49 59  2  0  0  0  0
 50 51  1  0  0  0  0
 50 52  2  0  0  0  0
 52 53  1  0  0  0  0
 52144  1  0  0  0  0
 53 54  1  0  0  0  0
 53 58  2  0  0  0  0
 54 55  2  0  0  0  0
 54 56  2  0  0  0  0
 54 57  1  0  0  0  0
 58 59  1  0  0  0  0
 58145  1  0  0  0  0
 59 60  1  0  0  0  0
 61 62  2  0  0  0  0
 61 65  1  0  0  0  0
 62 63  1  0  0  0  0
 62146  1  0  0  0  0
 63 64  2  0  0  0  0
 63147  1  0  0  0  0
 64 65  1  0  0  0  0
 64 66  1  0  0  0  0
 65148  1  0  0  0  0
 66 67  1  0  0  0  0
 66 79  2  0  0  0  0
 67 68  1  0  0  0  0
 67 77  2  0  0  0  0
 68 69  1  0  0  0  0
 68 70  2  0  0  0  0
 70 71  1  0  0  0  0
 70149  1  0  0  0  0
 71 72  1  0  0  0  0
 71 76  2  0  0  0  0
 72 73  2  0  0  0  0
 72 74  2  0  0  0  0
 72 75  1  0  0  0  0
 76 77  1  0  0  0  0
 76150  1  0  0  0  0
 77 78  1  0  0  0  0
 79 80  1  0  0  0  0
 79101  1  0  0  0  0
 80 81  2  0  0  0  0
 81 82  1  0  0  0  0
 81100  1  0  0  0  0
 82 83  1  0  0  0  0
 82 95  2  0  0  0  0
 83 84  1  0  0  0  0
 83 93  2  0  0  0  0
 84 85  1  0  0  0  0
 84 86  2  0  0  0  0
 86 87  1  0  0  0  0
 86151  1  0  0  0  0
 87 88  1  0  0  0  0
 87 92  2  0  0  0  0
 88 89  2  0  0  0  0
 88 90  2  0  0  0  0
 88 91  1  0  0  0  0
 92 93  1  0  0  0  0
 92152  1  0  0  0  0
 93 94  1  0  0  0  0
 95 96  1  0  0  0  0
 95 99  1  0  0  0  0
 96 97  2  0  0  0  0
 96153  1  0  0  0  0
 97 98  1  0  0  0  0
 97154  1  0  0  0  0
 98 99  1  0  0  0  0
 99155  1  0  0  0  0
100101  2  0  0  0  0
100156  1  0  0  0  0
101157  1  0  0  0  0
102103  2  0  0  0  0
102158  1  0  0  0  0
103159  1  0  0  0  0
104105  1  0  0  0  0
104160  1  0  0  0  0
105161  1  0  0  0  0
M  CHG  4  34   1  57  -1  75  -1  91  -1
M  END
$$$$
