4_4_7484
 OpenBabel04152301373D

132142  0  0  1  0  0  0  0  0999 V2000
   -2.1378   -6.0413   -5.4314 C   0  0  0  0  0  0  0  0  0  0  0  0
   -1.4469   -4.8603   -4.8659 C   0  0  0  0  0  0  0  0  0  0  0  0
   -0.0611   -4.6138   -4.7973 C   0  0  0  0  0  0  0  0  0  0  0  0
    0.2121   -3.3688   -4.3958 N   0  0  0  0  0  0  0  0  0  0  0  0
   -1.0034   -2.7907   -4.2681 N   0  0  0  0  0  0  0  0  0  0  0  0
   -1.0777   -1.3464   -4.0928 C   0  0  1  0  0  0  0  0  0  0  0  0
   -0.2669   -0.5433   -5.1267 C   0  0  0  0  0  0  0  0  0  0  0  0
   -1.2545    0.0870   -6.1196 C   0  0  0  0  0  0  0  0  0  0  0  0
   -2.6773   -0.2062   -5.6172 C   0  0  1  0  0  0  0  0  0  0  0  0
   -3.4760    1.0417   -5.6365 N   0  3  0  0  0  0  0  0  0  0  0  0
   -3.5013   -1.2561   -6.4362 C   0  0  0  0  0  0  0  0  0  0  0  0
   -4.2626   -2.0602   -5.9069 O   0  0  0  0  0  0  0  0  0  0  0  0
   -3.3676   -1.1041   -7.7869 O   0  0  0  0  0  0  0  0  0  0  0  0
   -4.0606   -2.0708   -8.6111 C   0  0  0  0  0  0  0  0  0  0  0  0
   -3.1055   -3.0917   -9.2439 C   0  0  0  0  0  0  0  0  0  0  0  0
   -2.2943   -3.7909   -8.2955 O   0  0  0  0  0  0  0  0  0  0  0  0
   -1.2577   -2.9743   -7.7607 C   0  0  0  0  0  0  0  0  0  0  0  0
    0.1261   -3.5839   -7.8744 C   0  0  0  0  0  0  0  0  0  0  0  0
    0.7540   -3.0185   -9.0126 O   0  0  0  0  0  0  0  0  0  0  0  0
    0.1794   -3.2982  -10.2035 C   0  0  0  0  0  0  0  0  0  0  0  0
   -0.5448   -4.2141  -10.5066 O   0  0  0  0  0  0  0  0  0  0  0  0
    0.7146   -2.2729  -11.0953 C   0  0  0  0  0  0  0  0  0  0  0  0
    1.1084   -2.7244  -12.3450 C   0  0  0  0  0  0  0  0  0  0  0  0
    2.1022   -2.0193  -12.9734 C   0  0  0  0  0  0  0  0  0  0  0  0
    2.6388   -0.8809  -12.3463 C   0  0  0  0  0  0  0  0  0  0  0  0
    3.6657   -0.1582  -13.0593 C   0  0  0  0  0  0  0  0  0  0  0  0
    3.0757    0.4997  -14.2417 C   0  0  0  0  0  0  0  0  0  0  0  0
    3.1198    0.0710  -15.4578 N   0  0  0  0  0  0  0  0  0  0  0  0
    2.4087    1.0101  -16.1898 C   0  0  0  0  0  0  0  0  0  0  0  0
    2.8491    1.3697  -17.4245 C   0  0  0  0  0  0  0  0  0  0  0  0
    2.8345    2.7982  -17.9183 C   0  0  0  0  0  0  0  0  0  0  0  0
    3.1459    3.0672  -19.2644 C   0  0  0  0  0  0  0  0  0  0  0  0
    3.2528    2.0655  -20.1519 F   0  0  0  0  0  0  0  0  0  0  0  0
    3.4172    4.3588  -19.7233 C   0  0  0  0  0  0  0  0  0  0  0  0
    3.3417    5.4310  -18.8375 C   0  0  0  0  0  0  0  0  0  0  0  0
    3.7223    7.0952  -19.4061 S   0  0  0  0  0  0  0  0  0  0  0  0
    5.1565    7.0011  -19.6497 O   0  0  0  0  0  0  0  0  0  0  0  0
    2.8747    7.2090  -20.5882 O   0  0  0  0  0  0  0  0  0  0  0  0
    3.3268    7.9337  -18.2777 O   0  5  0  0  0  0  0  0  0  0  0  0
    3.0037    5.2252  -17.5136 C   0  0  0  0  0  0  0  0  0  0  0  0
    2.7956    3.9286  -17.0677 C   0  0  0  0  0  0  0  0  0  0  0  0
    2.6549    3.8309  -15.7413 F   0  0  0  0  0  0  0  0  0  0  0  0
    3.7923    0.4007  -17.9268 C   0  0  0  0  0  0  0  0  0  0  0  0
    3.7239   -0.8989  -18.3818 C   0  0  0  0  0  0  0  0  0  0  0  0
    4.9813   -1.4952  -18.0681 C   0  0  0  0  0  0  0  0  0  0  0  0
    5.8067   -0.5332  -17.4878 C   0  0  0  0  0  0  0  0  0  0  0  0
    5.0887    0.6326  -17.5394 N   0  0  0  0  0  0  0  0  0  0  0  0
    7.0464   -0.6318  -16.7446 C   0  0  0  0  0  0  0  0  0  0  0  0
    7.6195   -2.0004  -16.5039 C   0  0  0  0  0  0  0  0  0  0  0  0
    7.6093   -2.6831  -15.2752 C   0  0  0  0  0  0  0  0  0  0  0  0
    7.0507   -2.1343  -14.1866 F   0  0  0  0  0  0  0  0  0  0  0  0
    8.1385   -3.9708  -15.1500 C   0  0  0  0  0  0  0  0  0  0  0  0
    8.6586   -4.6053  -16.2796 C   0  0  0  0  0  0  0  0  0  0  0  0
    9.3014   -6.2870  -16.1385 S   0  0  0  0  0  0  0  0  0  0  0  0
   10.5354   -6.0825  -15.3879 O   0  0  0  0  0  0  0  0  0  0  0  0
    8.2307   -6.9771  -15.4250 O   0  0  0  0  0  0  0  0  0  0  0  0
    9.4788   -6.7019  -17.5284 O   0  5  0  0  0  0  0  0  0  0  0  0
    8.6492   -3.9703  -17.5183 C   0  0  0  0  0  0  0  0  0  0  0  0
    8.1463   -2.6787  -17.6124 C   0  0  0  0  0  0  0  0  0  0  0  0
    8.1399   -2.0949  -18.8223 F   0  0  0  0  0  0  0  0  0  0  0  0
    7.6830    0.4223  -16.1574 C   0  0  0  0  0  0  0  0  0  0  0  0
    8.4795    0.2304  -15.0443 N   0  0  0  0  0  0  0  0  0  0  0  0
    8.3224    1.3163  -14.3371 C   0  0  0  0  0  0  0  0  0  0  0  0
    8.2741    1.3145  -12.8546 C   0  0  0  0  0  0  0  0  0  0  0  0
    9.1811    2.1607  -12.0363 C   0  0  0  0  0  0  0  0  0  0  0  0
   10.4731    2.5037  -12.4788 C   0  0  0  0  0  0  0  0  0  0  0  0
   11.0200    1.8634  -13.5233 F   0  0  0  0  0  0  0  0  0  0  0  0
   11.2053    3.5546  -11.9112 C   0  0  0  0  0  0  0  0  0  0  0  0
   10.6453    4.2910  -10.8683 C   0  0  0  0  0  0  0  0  0  0  0  0
   11.5099    5.7570  -10.2483 S   0  0  0  0  0  0  0  0  0  0  0  0
   12.6626    5.1674   -9.5763 O   0  0  0  0  0  0  0  0  0  0  0  0
   11.7956    6.4915  -11.4763 O   0  0  0  0  0  0  0  0  0  0  0  0
   10.5272    6.3826   -9.3669 O   0  5  0  0  0  0  0  0  0  0  0  0
    9.3921    3.9545  -10.3674 C   0  0  0  0  0  0  0  0  0  0  0  0
    8.6812    2.9031  -10.9496 C   0  0  0  0  0  0  0  0  0  0  0  0
    7.4403    2.6873  -10.4870 F   0  0  0  0  0  0  0  0  0  0  0  0
    7.1388    0.6573  -12.5009 C   0  0  0  0  0  0  0  0  0  0  0  0
    6.7740    0.0004  -11.2562 C   0  0  0  0  0  0  0  0  0  0  0  0
    5.5232   -0.5071  -11.3786 C   0  0  0  0  0  0  0  0  0  0  0  0
    4.9466   -0.0765  -12.6554 C   0  0  0  0  0  0  0  0  0  0  0  0
    6.0099    0.4806  -13.2978 N   0  0  0  0  0  0  0  0  0  0  0  0
    7.7937    2.4619  -15.0687 C   0  0  0  0  0  0  0  0  0  0  0  0
    7.4282    1.8574  -16.2034 C   0  0  0  0  0  0  0  0  0  0  0  0
    1.5860    1.7193  -15.2493 C   0  0  0  0  0  0  0  0  0  0  0  0
    2.0825    1.5660  -14.0200 C   0  0  0  0  0  0  0  0  0  0  0  0
    2.0842   -0.3206  -11.2021 C   0  0  0  0  0  0  0  0  0  0  0  0
    1.0836   -1.0168  -10.5758 C   0  0  0  0  0  0  0  0  0  0  0  0
   -2.4616   -0.6745   -4.1576 C   0  0  0  0  0  0  0  0  0  0  0  0
   -2.0126   -3.7077   -4.3561 C   0  0  0  0  0  0  0  0  0  0  0  0
   -1.4126   -6.7654   -5.7391 H   0  0  0  0  0  0  0  0  0  0  0  0
   -2.7231   -5.7418   -6.2755 H   0  0  0  0  0  0  0  0  0  0  0  0
   -2.7770   -6.4703   -4.6883 H   0  0  0  0  0  0  0  0  0  0  0  0
    0.6600   -5.3143   -5.0304 H   0  0  0  0  0  0  0  0  0  0  0  0
   -0.6933   -1.3063   -3.0950 H   0  0  0  0  0  0  0  0  0  0  0  0
    0.4046   -1.1944   -5.6465 H   0  0  0  0  0  0  0  0  0  0  0  0
    0.3063    0.2176   -4.6394 H   0  0  0  0  0  0  0  0  0  0  0  0
   -1.1163   -0.3398   -7.0910 H   0  0  0  0  0  0  0  0  0  0  0  0
   -1.0926    1.1424   -6.1887 H   0  0  0  0  0  0  0  0  0  0  0  0
   -3.6131    1.3427   -6.6014 H   0  0  0  0  0  0  0  0  0  0  0  0
   -2.9820    1.7696   -5.1202 H   0  0  0  0  0  0  0  0  0  0  0  0
   -4.3827    0.8718   -5.2012 H   0  0  0  0  0  0  0  0  0  0  0  0
   -4.5744   -1.5507   -9.3924 H   0  0  0  0  0  0  0  0  0  0  0  0
   -4.7414   -2.6066   -7.9831 H   0  0  0  0  0  0  0  0  0  0  0  0
   -2.4602   -2.5740   -9.9225 H   0  0  0  0  0  0  0  0  0  0  0  0
   -3.7130   -3.8241   -9.7332 H   0  0  0  0  0  0  0  0  0  0  0  0
   -1.4655   -2.8014   -6.7254 H   0  0  0  0  0  0  0  0  0  0  0  0
   -1.2470   -2.0712   -8.3344 H   0  0  0  0  0  0  0  0  0  0  0  0
    0.0486   -4.6448   -7.9903 H   0  0  0  0  0  0  0  0  0  0  0  0
    0.6977   -3.3829   -6.9925 H   0  0  0  0  0  0  0  0  0  0  0  0
    0.6741   -3.5523  -12.7820 H   0  0  0  0  0  0  0  0  0  0  0  0
    2.4524   -2.3206  -13.8962 H   0  0  0  0  0  0  0  0  0  0  0  0
    3.6715    4.5171  -20.7109 H   0  0  0  0  0  0  0  0  0  0  0  0
    2.9076    6.0237  -16.8669 H   0  0  0  0  0  0  0  0  0  0  0  0
    2.9245   -1.3494  -18.8540 H   0  0  0  0  0  0  0  0  0  0  0  0
    5.2383   -2.4794  -18.2425 H   0  0  0  0  0  0  0  0  0  0  0  0
    5.4550    1.5212  -17.3263 H   0  0  0  0  0  0  0  0  0  0  0  0
    8.1447   -4.4464  -14.2342 H   0  0  0  0  0  0  0  0  0  0  0  0
    9.0111   -4.4527  -18.3558 H   0  0  0  0  0  0  0  0  0  0  0  0
   12.1492    3.7812  -12.2614 H   0  0  0  0  0  0  0  0  0  0  0  0
    8.9914    4.4771   -9.5728 H   0  0  0  0  0  0  0  0  0  0  0  0
    7.3701   -0.0682  -10.4166 H   0  0  0  0  0  0  0  0  0  0  0  0
    5.0506   -1.1036  -10.6816 H   0  0  0  0  0  0  0  0  0  0  0  0
    5.9832    0.7376  -14.2478 H   0  0  0  0  0  0  0  0  0  0  0  0
    7.7224    3.4531  -14.7906 H   0  0  0  0  0  0  0  0  0  0  0  0
    7.0160    2.3466  -17.0132 H   0  0  0  0  0  0  0  0  0  0  0  0
    0.7418    2.2631  -15.4875 H   0  0  0  0  0  0  0  0  0  0  0  0
    1.8370    2.0610  -13.1484 H   0  0  0  0  0  0  0  0  0  0  0  0
    2.4138    0.5867  -10.8372 H   0  0  0  0  0  0  0  0  0  0  0  0
    0.6118   -0.6300   -9.7435 H   0  0  0  0  0  0  0  0  0  0  0  0
   -2.4924    0.1652   -3.4952 H   0  0  0  0  0  0  0  0  0  0  0  0
   -3.2293   -1.3585   -3.8616 H   0  0  0  0  0  0  0  0  0  0  0  0
   -3.0008   -3.5672   -4.0939 H   0  0  0  0  0  0  0  0  0  0  0  0
  1  2  1  0  0  0  0
  1 90  1  0  0  0  0
  1 91  1  0  0  0  0
  1 92  1  0  0  0  0
  2  3  1  0  0  0  0
  2 89  2  0  0  0  0
  3  4  2  0  0  0  0
  3 93  1  0  0  0  0
  4  5  1  0  0  0  0
  5 89  1  0  0  0  0
  6  7  1  0  0  0  0
  6 88  1  0  0  0  0
  6  5  1  0  0  0  0
  6 94  1  1  0  0  0
  7  8  1  0  0  0  0
  7 95  1  0  0  0  0
  7 96  1  0  0  0  0
  8  9  1  0  0  0  0
  8 97  1  0  0  0  0
  8 98  1  0  0  0  0
  9 10  1  0  0  0  0
  9 11  1  6  0  0  0
  9 88  1  0  0  0  0
 10 99  1  0  0  0  0
 10100  1  0  0  0  0
 10101  1  0  0  0  0
 11 12  2  0  0  0  0
 11 13  1  0  0  0  0
 13 14  1  0  0  0  0
 14 15  1  0  0  0  0
 14102  1  0  0  0  0
 14103  1  0  0  0  0
 15 16  1  0  0  0  0
 15104  1  0  0  0  0
 15105  1  0  0  0  0
 16 17  1  0  0  0  0
 17 18  1  0  0  0  0
 17106  1  0  0  0  0
 17107  1  0  0  0  0
 18 19  1  0  0  0  0
 18108  1  0  0  0  0
 18109  1  0  0  0  0
 19 20  1  0  0  0  0
 20 21  2  0  0  0  0
 20 22  1  0  0  0  0
 22 23  1  0  0  0  0
 22 87  2  0  0  0  0
 23 24  2  0  0  0  0
 23110  1  0  0  0  0
 24 25  1  0  0  0  0
 24111  1  0  0  0  0
 25 26  1  0  0  0  0
 25 86  2  0  0  0  0
 26 27  1  0  0  0  0
 26 80  2  0  0  0  0
 27 28  2  0  0  0  0
 27 85  1  0  0  0  0
 28 29  1  0  0  0  0
 29 30  2  0  0  0  0
 29 84  1  0  0  0  0
 30 31  1  0  0  0  0
 30 43  1  0  0  0  0
 31 32  1  0  0  0  0
 31 41  2  0  0  0  0
 32 33  1  0  0  0  0
 32 34  2  0  0  0  0
 34 35  1  0  0  0  0
 34112  1  0  0  0  0
 35 36  1  0  0  0  0
 35 40  2  0  0  0  0
 36 37  2  0  0  0  0
 36 38  2  0  0  0  0
 36 39  1  0  0  0  0
 40 41  1  0  0  0  0
 40113  1  0  0  0  0
 41 42  1  0  0  0  0
 43 44  2  0  0  0  0
 43 47  1  0  0  0  0
 44 45  1  0  0  0  0
 44114  1  0  0  0  0
 45 46  2  0  0  0  0
 45115  1  0  0  0  0
 46 47  1  0  0  0  0
 46 48  1  0  0  0  0
 47116  1  0  0  0  0
 48 49  1  0  0  0  0
 48 61  2  0  0  0  0
 49 50  1  0  0  0  0
 49 59  2  0  0  0  0
 50 51  1  0  0  0  0
 50 52  2  0  0  0  0
 52 53  1  0  0  0  0
 52117  1  0  0  0  0
 53 54  1  0  0  0  0
 53 58  2  0  0  0  0
 54 55  2  0  0  0  0
 54 56  2  0  0  0  0
 54 57  1  0  0  0  0
 58 59  1  0  0  0  0
 58118  1  0  0  0  0
 59 60  1  0  0  0  0
 61 62  1  0  0  0  0
 61 83  1  0  0  0  0
 62 63  2  0  0  0  0
 63 64  1  0  0  0  0
 63 82  1  0  0  0  0
 64 65  1  0  0  0  0
 64 77  2  0  0  0  0
 65 66  1  0  0  0  0
 65 75  2  0  0  0  0
 66 67  1  0  0  0  0
 66 68  2  0  0  0  0
 68 69  1  0  0  0  0
 68119  1  0  0  0  0
 69 70  1  0  0  0  0
 69 74  2  0  0  0  0
 70 71  2  0  0  0  0
 70 72  2  0  0  0  0
 70 73  1  0  0  0  0
 74 75  1  0  0  0  0
 74120  1  0  0  0  0
 75 76  1  0  0  0  0
 77 78  1  0  0  0  0
 77 81  1  0  0  0  0
 78 79  2  0  0  0  0
 78121  1  0  0  0  0
 79 80  1  0  0  0  0
 79122  1  0  0  0  0
 80 81  1  0  0  0  0
 81123  1  0  0  0  0
 82 83  2  0  0  0  0
 82124  1  0  0  0  0
 83125  1  0  0  0  0
 84 85  2  0  0  0  0
 84126  1  0  0  0  0
 85127  1  0  0  0  0
 86 87  1  0  0  0  0
 86128  1  0  0  0  0
 87129  1  0  0  0  0
 88130  1  0  0  0  0
 88131  1  0  0  0  0
 89132  1  0  0  0  0
M  CHG  4  10   1  39  -1  57  -1  73  -1
M  END
$$$$
