4_4_2402
 OpenBabel04152301373D

147158  0  0  1  0  0  0  0  0999 V2000
    1.5313    1.5604   -0.4066 C   0  0  0  0  0  0  0  0  0  0  0  0
    0.3704    1.9052   -1.3334 C   0  0  1  0  0  0  0  0  0  0  0  0
    0.5812    1.5434   -2.7772 C   0  0  0  0  0  0  0  0  0  0  0  0
   -0.2531    1.6769   -3.6612 O   0  0  0  0  0  0  0  0  0  0  0  0
    1.8722    1.1532   -3.0070 O   0  0  0  0  0  0  0  0  0  0  0  0
    2.2681    0.9847   -4.3807 C   0  0  0  0  0  0  0  0  0  0  0  0
    2.2781   -0.4804   -4.8163 C   0  0  0  0  0  0  0  0  0  0  0  0
    0.9923   -1.0966   -4.8109 O   0  0  0  0  0  0  0  0  0  0  0  0
    0.6048   -1.7151   -3.5813 C   0  0  0  0  0  0  0  0  0  0  0  0
    1.2465   -3.0859   -3.3670 C   0  0  0  0  0  0  0  0  0  0  0  0
    2.5935   -2.9104   -2.8977 O   0  0  0  0  0  0  0  0  0  0  0  0
    3.4854   -3.7417   -3.4767 C   0  0  0  0  0  0  0  0  0  0  0  0
    3.2449   -4.7108   -4.1798 O   0  0  0  0  0  0  0  0  0  0  0  0
    4.8368   -3.1954   -3.3005 C   0  0  0  0  0  0  0  0  0  0  0  0
    5.5337   -2.8378   -4.4589 C   0  0  0  0  0  0  0  0  0  0  0  0
    6.8765   -2.4881   -4.3737 C   0  0  0  0  0  0  0  0  0  0  0  0
    7.5268   -2.5069   -3.1320 C   0  0  0  0  0  0  0  0  0  0  0  0
    9.0061   -2.4199   -3.1023 C   0  0  0  0  0  0  0  0  0  0  0  0
    9.8050   -3.6915   -2.9942 C   0  0  0  0  0  0  0  0  0  0  0  0
   11.1018   -3.8569   -2.9875 N   0  0  0  0  0  0  0  0  0  0  0  0
   11.3080   -5.2270   -2.8722 C   0  0  0  0  0  0  0  0  0  0  0  0
   12.4780   -5.9086   -2.8601 C   0  0  0  0  0  0  0  0  0  0  0  0
   12.4097   -7.4030   -2.7138 C   0  0  0  0  0  0  0  0  0  0  0  0
   11.9776   -8.2286   -3.7639 C   0  0  0  0  0  0  0  0  0  0  0  0
   11.5703   -7.6894   -4.9240 F   0  0  0  0  0  0  0  0  0  0  0  0
   11.9162   -9.6115   -3.6233 C   0  0  0  0  0  0  0  0  0  0  0  0
   12.3144  -10.1890   -2.4161 C   0  0  0  0  0  0  0  0  0  0  0  0
   12.2294  -11.9845   -2.2465 S   0  0  0  0  0  0  0  0  0  0  0  0
   10.7918  -12.1950   -2.1066 O   0  0  0  0  0  0  0  0  0  0  0  0
   12.8181  -12.4462   -3.4995 O   0  0  0  0  0  0  0  0  0  0  0  0
   13.0217  -12.2506   -1.0499 O   0  5  0  0  0  0  0  0  0  0  0  0
   12.7738   -9.4022   -1.3608 C   0  0  0  0  0  0  0  0  0  0  0  0
   12.8045   -8.0194   -1.5157 C   0  0  0  0  0  0  0  0  0  0  0  0
   13.2215   -7.2759   -0.4789 F   0  0  0  0  0  0  0  0  0  0  0  0
   13.7722   -5.2874   -2.9591 C   0  0  0  0  0  0  0  0  0  0  0  0
   15.0182   -5.8890   -2.9674 C   0  0  0  0  0  0  0  0  0  0  0  0
   15.9882   -4.8828   -3.0349 C   0  0  0  0  0  0  0  0  0  0  0  0
   15.3452   -3.6575   -3.1141 C   0  0  0  0  0  0  0  0  0  0  0  0
   13.9869   -3.9208   -3.0630 N   0  0  0  0  0  0  0  0  0  0  0  0
   15.9291   -2.3441   -3.2255 C   0  0  0  0  0  0  0  0  0  0  0  0
   17.4285   -2.2513   -3.2733 C   0  0  0  0  0  0  0  0  0  0  0  0
   18.1718   -1.7877   -2.1773 C   0  0  0  0  0  0  0  0  0  0  0  0
   17.5464   -1.3589   -1.0696 F   0  0  0  0  0  0  0  0  0  0  0  0
   19.5614   -1.7350   -2.2135 C   0  0  0  0  0  0  0  0  0  0  0  0
   20.2277   -2.1751   -3.3591 C   0  0  0  0  0  0  0  0  0  0  0  0
   22.0325   -2.1330   -3.3827 S   0  0  0  0  0  0  0  0  0  0  0  0
   22.2899   -0.7106   -3.5813 O   0  0  0  0  0  0  0  0  0  0  0  0
   22.3764   -2.6619   -2.0663 O   0  0  0  0  0  0  0  0  0  0  0  0
   22.3770   -2.9974   -4.5075 O   0  5  0  0  0  0  0  0  0  0  0  0
   19.5218   -2.6621   -4.4585 C   0  0  0  0  0  0  0  0  0  0  0  0
   18.1317   -2.6831   -4.4096 C   0  0  0  0  0  0  0  0  0  0  0  0
   17.4674   -3.1462   -5.4804 F   0  0  0  0  0  0  0  0  0  0  0  0
   15.2293   -1.1853   -3.3093 C   0  0  0  0  0  0  0  0  0  0  0  0
   13.8521   -0.9900   -3.3123 N   0  0  0  0  0  0  0  0  0  0  0  0
   13.6731    0.3069   -3.4029 C   0  0  0  0  0  0  0  0  0  0  0  0
   12.3834    1.0810   -3.4725 C   0  0  0  0  0  0  0  0  0  0  0  0
   12.3861    2.5636   -3.5763 C   0  0  0  0  0  0  0  0  0  0  0  0
   12.8007    3.2115   -4.7484 C   0  0  0  0  0  0  0  0  0  0  0  0
   13.2259    2.4918   -5.7979 F   0  0  0  0  0  0  0  0  0  0  0  0
   12.8014    4.5991   -4.8517 C   0  0  0  0  0  0  0  0  0  0  0  0
   12.3602    5.3594   -3.7668 C   0  0  0  0  0  0  0  0  0  0  0  0
   12.3068    7.1574   -3.9291 S   0  0  0  0  0  0  0  0  0  0  0  0
   13.7185    7.5040   -3.8169 O   0  0  0  0  0  0  0  0  0  0  0  0
   11.7087    7.3290   -5.2495 O   0  0  0  0  0  0  0  0  0  0  0  0
   11.4631    7.5681   -2.8105 O   0  5  0  0  0  0  0  0  0  0  0  0
   11.9292    4.7492   -2.5899 C   0  0  0  0  0  0  0  0  0  0  0  0
   11.9595    3.3616   -2.5029 C   0  0  0  0  0  0  0  0  0  0  0  0
   11.5419    2.7886   -1.3632 F   0  0  0  0  0  0  0  0  0  0  0  0
   11.2128    0.4148   -3.4324 C   0  0  0  0  0  0  0  0  0  0  0  0
    9.8839    1.0177   -3.5185 C   0  0  0  0  0  0  0  0  0  0  0  0
    8.9541    0.0549   -3.3956 C   0  0  0  0  0  0  0  0  0  0  0  0
    9.6256   -1.2353   -3.2452 C   0  0  0  0  0  0  0  0  0  0  0  0
   10.9612   -0.9286   -3.2941 N   0  0  0  0  0  0  0  0  0  0  0  0
   14.9194    1.0843   -3.4459 C   0  0  0  0  0  0  0  0  0  0  0  0
   15.8360    0.1259   -3.4185 C   0  0  0  0  0  0  0  0  0  0  0  0
   10.0041   -5.8458   -2.7774 C   0  0  0  0  0  0  0  0  0  0  0  0
    9.0389   -4.9443   -2.8823 C   0  0  0  0  0  0  0  0  0  0  0  0
    6.7946   -2.7772   -1.9620 C   0  0  0  0  0  0  0  0  0  0  0  0
    5.4437   -3.1286   -2.0442 C   0  0  0  0  0  0  0  0  0  0  0  0
   -1.2247    1.3361   -0.7356 S   0  0  0  0  0  0  0  0  0  0  0  0
   -1.2679    1.5726    0.6889 O   0  0  0  0  0  0  0  0  0  0  0  0
   -2.2625    1.9163   -1.5664 O   0  0  0  0  0  0  0  0  0  0  0  0
   -1.3549   -0.3140   -1.0194 N   0  0  0  0  0  0  0  0  0  0  0  0
   -1.1740   -1.3817    0.0096 C   0  0  1  0  0  0  0  0  0  0  0  0
    0.2932   -1.4283    0.4538 C   0  0  0  0  0  0  0  0  0  0  0  0
    0.5448   -2.5795    1.4263 C   0  0  1  0  0  0  0  0  0  0  0  0
   -0.3530   -2.3858    2.6560 C   0  0  0  0  0  0  0  0  0  0  0  0
   -1.8446   -2.4017    2.2457 C   0  0  1  0  0  0  0  0  0  0  0  0
   -2.7268   -2.2260    3.4854 C   0  0  0  0  0  0  0  0  0  0  0  0
   -2.1032   -1.2490    1.2355 C   0  0  0  0  0  0  0  0  0  0  0  0
   -2.1458   -3.7539    1.5632 C   0  0  0  0  0  0  0  0  0  0  0  0
   -1.2682   -3.9305    0.3049 C   0  0  2  0  0  0  0  0  0  0  0  0
   -1.5863   -5.2643   -0.3790 C   0  0  0  0  0  0  0  0  0  0  0  0
    0.2148   -3.9050    0.7323 C   0  0  0  0  0  0  0  0  0  0  0  0
   -1.5428   -2.7425   -0.6503 C   0  0  0  0  0  0  0  0  0  0  0  0
    2.4441    1.9291   -0.8259 H   0  0  0  0  0  0  0  0  0  0  0  0
    1.5941    0.4982   -0.2936 H   0  0  0  0  0  0  0  0  0  0  0  0
    1.3702    2.0119    0.5500 H   0  0  0  0  0  0  0  0  0  0  0  0
    0.3522    2.9747   -1.3063 H   0  0  0  0  0  0  0  0  0  0  0  0
    3.2524    1.3855   -4.5049 H   0  0  0  0  0  0  0  0  0  0  0  0
    1.5524    1.4977   -4.9885 H   0  0  0  0  0  0  0  0  0  0  0  0
    2.9148   -1.0248   -4.1506 H   0  0  0  0  0  0  0  0  0  0  0  0
    2.6261   -0.4999   -5.8279 H   0  0  0  0  0  0  0  0  0  0  0  0
   -0.4586   -1.8338   -3.5809 H   0  0  0  0  0  0  0  0  0  0  0  0
    0.9392   -1.0804   -2.7874 H   0  0  0  0  0  0  0  0  0  0  0  0
    1.2572   -3.6243   -4.2916 H   0  0  0  0  0  0  0  0  0  0  0  0
    0.6831   -3.6367   -2.6431 H   0  0  0  0  0  0  0  0  0  0  0  0
    5.0536   -2.8335   -5.3724 H   0  0  0  0  0  0  0  0  0  0  0  0
    7.3940   -2.2149   -5.2237 H   0  0  0  0  0  0  0  0  0  0  0  0
   11.5810  -10.2021   -4.4004 H   0  0  0  0  0  0  0  0  0  0  0  0
   13.0860   -9.8381   -0.4790 H   0  0  0  0  0  0  0  0  0  0  0  0
   15.2005   -6.9041   -2.9302 H   0  0  0  0  0  0  0  0  0  0  0  0
   17.0098   -5.0284   -3.0270 H   0  0  0  0  0  0  0  0  0  0  0  0
   13.2778   -3.2386   -3.0956 H   0  0  0  0  0  0  0  0  0  0  0  0
   20.0925   -1.3756   -1.4049 H   0  0  0  0  0  0  0  0  0  0  0  0
   20.0224   -3.0014   -5.2948 H   0  0  0  0  0  0  0  0  0  0  0  0
   13.1233    5.0595   -5.7174 H   0  0  0  0  0  0  0  0  0  0  0  0
   11.5933    5.3175   -1.7967 H   0  0  0  0  0  0  0  0  0  0  0  0
    9.6904    2.0225   -3.6523 H   0  0  0  0  0  0  0  0  0  0  0  0
    7.9327    0.2022   -3.4057 H   0  0  0  0  0  0  0  0  0  0  0  0
   11.6724   -1.6069   -3.2356 H   0  0  0  0  0  0  0  0  0  0  0  0
   15.0478    2.1075   -3.4867 H   0  0  0  0  0  0  0  0  0  0  0  0
   16.8531    0.2931   -3.4686 H   0  0  0  0  0  0  0  0  0  0  0  0
    9.8463   -6.8571   -2.6453 H   0  0  0  0  0  0  0  0  0  0  0  0
    8.0164   -5.0837   -2.8849 H   0  0  0  0  0  0  0  0  0  0  0  0
    7.2555   -2.7160   -1.0406 H   0  0  0  0  0  0  0  0  0  0  0  0
    4.9033   -3.3354   -1.1897 H   0  0  0  0  0  0  0  0  0  0  0  0
   -0.6691   -0.5189   -1.7460 H   0  0  0  0  0  0  0  0  0  0  0  0
    0.5407   -0.5054    0.9353 H   0  0  0  0  0  0  0  0  0  0  0  0
    0.9027   -1.5799   -0.4125 H   0  0  0  0  0  0  0  0  0  0  0  0
    1.5699   -2.5950    1.7325 H   0  0  0  0  0  0  0  0  0  0  0  0
   -0.1240   -1.4467    3.1148 H   0  0  0  0  0  0  0  0  0  0  0  0
   -0.1748   -3.1856    3.3441 H   0  0  0  0  0  0  0  0  0  0  0  0
   -2.5084   -1.2864    3.9483 H   0  0  0  0  0  0  0  0  0  0  0  0
   -2.5315   -3.0184    4.1774 H   0  0  0  0  0  0  0  0  0  0  0  0
   -3.7568   -2.2505    3.1966 H   0  0  0  0  0  0  0  0  0  0  0  0
   -3.1219   -1.2883    0.9104 H   0  0  0  0  0  0  0  0  0  0  0  0
   -1.9046   -0.3155    1.7193 H   0  0  0  0  0  0  0  0  0  0  0  0
   -3.1773   -3.7838    1.2804 H   0  0  0  0  0  0  0  0  0  0  0  0
   -1.9293   -4.5449    2.2505 H   0  0  0  0  0  0  0  0  0  0  0  0
   -1.3893   -6.0685    0.2987 H   0  0  0  0  0  0  0  0  0  0  0  0
   -0.9741   -5.3736   -1.2497 H   0  0  0  0  0  0  0  0  0  0  0  0
   -2.6176   -5.2822   -0.6636 H   0  0  0  0  0  0  0  0  0  0  0  0
    0.4015   -4.7134    1.4080 H   0  0  0  0  0  0  0  0  0  0  0  0
    0.8298   -4.0053   -0.1376 H   0  0  0  0  0  0  0  0  0  0  0  0
   -0.9585   -2.8680   -1.5379 H   0  0  0  0  0  0  0  0  0  0  0  0
   -2.5878   -2.7315   -0.8800 H   0  0  0  0  0  0  0  0  0  0  0  0
  1  2  1  0  0  0  0
  1 96  1  0  0  0  0
  1 97  1  0  0  0  0
  1 98  1  0  0  0  0
  2  3  1  0  0  0  0
  2 80  1  0  0  0  0
  2 99  1  1  0  0  0
  3  4  2  0  0  0  0
  3  5  1  0  0  0  0
  5  6  1  0  0  0  0
  6  7  1  0  0  0  0
  6100  1  0  0  0  0
  6101  1  0  0  0  0
  7  8  1  0  0  0  0
  7102  1  0  0  0  0
  7103  1  0  0  0  0
  8  9  1  0  0  0  0
  9 10  1  0  0  0  0
  9104  1  0  0  0  0
  9105  1  0  0  0  0
 10 11  1  0  0  0  0
 10106  1  0  0  0  0
 10107  1  0  0  0  0
 11 12  1  0  0  0  0
 12 13  2  0  0  0  0
 12 14  1  0  0  0  0
 14 15  1  0  0  0  0
 14 79  2  0  0  0  0
 15 16  2  0  0  0  0
 15108  1  0  0  0  0
 16 17  1  0  0  0  0
 16109  1  0  0  0  0
 17 18  1  0  0  0  0
 17 78  2  0  0  0  0
 18 19  1  0  0  0  0
 18 72  2  0  0  0  0
 19 20  2  0  0  0  0
 19 77  1  0  0  0  0
 20 21  1  0  0  0  0
 21 22  2  0  0  0  0
 21 76  1  0  0  0  0
 22 23  1  0  0  0  0
 22 35  1  0  0  0  0
 23 24  1  0  0  0  0
 23 33  2  0  0  0  0
 24 25  1  0  0  0  0
 24 26  2  0  0  0  0
 26 27  1  0  0  0  0
 26110  1  0  0  0  0
 27 28  1  0  0  0  0
 27 32  2  0  0  0  0
 28 29  2  0  0  0  0
 28 30  2  0  0  0  0
 28 31  1  0  0  0  0
 32 33  1  0  0  0  0
 32111  1  0  0  0  0
 33 34  1  0  0  0  0
 35 36  2  0  0  0  0
 35 39  1  0  0  0  0
 36 37  1  0  0  0  0
 36112  1  0  0  0  0
 37 38  2  0  0  0  0
 37113  1  0  0  0  0
 38 39  1  0  0  0  0
 38 40  1  0  0  0  0
 39114  1  0  0  0  0
 40 41  1  0  0  0  0
 40 53  2  0  0  0  0
 41 42  1  0  0  0  0
 41 51  2  0  0  0  0
 42 43  1  0  0  0  0
 42 44  2  0  0  0  0
 44 45  1  0  0  0  0
 44115  1  0  0  0  0
 45 46  1  0  0  0  0
 45 50  2  0  0  0  0
 46 47  2  0  0  0  0
 46 48  2  0  0  0  0
 46 49  1  0  0  0  0
 50 51  1  0  0  0  0
 50116  1  0  0  0  0
 51 52  1  0  0  0  0
 53 54  1  0  0  0  0
 53 75  1  0  0  0  0
 54 55  2  0  0  0  0
 55 56  1  0  0  0  0
 55 74  1  0  0  0  0
 56 57  1  0  0  0  0
 56 69  2  0  0  0  0
 57 58  1  0  0  0  0
 57 67  2  0  0  0  0
 58 59  1  0  0  0  0
 58 60  2  0  0  0  0
 60 61  1  0  0  0  0
 60117  1  0  0  0  0
 61 62  1  0  0  0  0
 61 66  2  0  0  0  0
 62 63  2  0  0  0  0
 62 64  2  0  0  0  0
 62 65  1  0  0  0  0
 66 67  1  0  0  0  0
 66118  1  0  0  0  0
 67 68  1  0  0  0  0
 69 70  1  0  0  0  0
 69 73  1  0  0  0  0
 70 71  2  0  0  0  0
 70119  1  0  0  0  0
 71 72  1  0  0  0  0
 71120  1  0  0  0  0
 72 73  1  0  0  0  0
 73121  1  0  0  0  0
 74 75  2  0  0  0  0
 74122  1  0  0  0  0
 75123  1  0  0  0  0
 76 77  2  0  0  0  0
 76124  1  0  0  0  0
 77125  1  0  0  0  0
 78 79  1  0  0  0  0
 78126  1  0  0  0  0
 79127  1  0  0  0  0
 80 81  2  0  0  0  0
 80 82  2  0  0  0  0
 80 83  1  0  0  0  0
 83128  1  0  0  0  0
 84 83  1  6  0  0  0
 84 85  1  0  0  0  0
 84 90  1  0  0  0  0
 84 95  1  0  0  0  0
 85 86  1  0  0  0  0
 85129  1  0  0  0  0
 85130  1  0  0  0  0
 86 87  1  0  0  0  0
 86 94  1  0  0  0  0
 86131  1  1  0  0  0
 87 88  1  0  0  0  0
 87132  1  0  0  0  0
 87133  1  0  0  0  0
 88 90  1  0  0  0  0
 88 91  1  0  0  0  0
 88 89  1  1  0  0  0
 89134  1  0  0  0  0
 89135  1  0  0  0  0
 89136  1  0  0  0  0
 90137  1  0  0  0  0
 90138  1  0  0  0  0
 91 92  1  0  0  0  0
 91139  1  0  0  0  0
 91140  1  0  0  0  0
 92 94  1  0  0  0  0
 92 95  1  0  0  0  0
 92 93  1  6  0  0  0
 93141  1  0  0  0  0
 93142  1  0  0  0  0
 93143  1  0  0  0  0
 94144  1  0  0  0  0
 94145  1  0  0  0  0
 95146  1  0  0  0  0
 95147  1  0  0  0  0
M  CHG  3  31  -1  49  -1  65  -1
M  END
$$$$
