4_4_4277
 OpenBabel04152301373D

136146  0  0  0  0  0  0  0  0999 V2000
    1.0868    0.5219   -0.4657 C   0  0  0  0  0  0  0  0  0  0  0  0
    0.3905    0.8236   -1.7896 C   0  0  0  0  0  0  0  0  0  0  0  0
    0.8860   -0.0038   -2.9416 C   0  0  0  0  0  0  0  0  0  0  0  0
    1.3225    0.6197   -4.0418 N   0  0  0  0  0  0  0  0  0  0  0  0
    1.8932   -0.3456   -4.7958 N   0  0  0  0  0  0  0  0  0  0  0  0
    2.4750   -0.0503   -6.0500 C   0  0  0  0  0  0  0  0  0  0  0  0
    1.7062   -0.2705   -7.1849 C   0  0  0  0  0  0  0  0  0  0  0  0
    2.3399   -0.3284   -8.4235 C   0  0  0  0  0  0  0  0  0  0  0  0
    3.6990   -0.1108   -8.4639 C   0  0  0  0  0  0  0  0  0  0  0  0
    4.5668   -0.1797   -9.9343 Cl  0  0  0  0  0  0  0  0  0  0  0  0
    4.4318    0.1019   -7.3512 N   0  0  0  0  0  0  0  0  0  0  0  0
    3.8164    0.1048   -6.1205 N   0  0  0  0  0  0  0  0  0  0  0  0
    1.7493   -1.6048   -4.2304 C   0  0  0  0  0  0  0  0  0  0  0  0
    2.4527   -2.8359   -4.7418 C   0  0  0  0  0  0  0  0  0  0  0  0
    2.2945   -3.1785   -6.2146 C   0  0  0  0  0  0  0  0  0  0  0  0
    1.0066   -1.4200   -3.0615 C   0  0  0  0  0  0  0  0  0  0  0  0
    0.6276   -2.4605   -2.0542 C   0  0  0  0  0  0  0  0  0  0  0  0
   -0.8351   -2.5735   -1.6732 C   0  0  0  0  0  0  0  0  0  0  0  0
   -1.1800   -2.8953   -0.5391 O   0  0  0  0  0  0  0  0  0  0  0  0
   -1.6897   -2.4543   -2.7271 O   0  0  0  0  0  0  0  0  0  0  0  0
   -3.0360   -2.9192   -2.4943 C   0  0  0  0  0  0  0  0  0  0  0  0
   -3.5947   -3.7586   -3.6532 C   0  0  0  0  0  0  0  0  0  0  0  0
   -2.8485   -4.9108   -4.0367 O   0  0  0  0  0  0  0  0  0  0  0  0
   -1.5205   -4.7144   -4.5003 C   0  0  0  0  0  0  0  0  0  0  0  0
   -1.3067   -3.8489   -5.7383 C   0  0  0  0  0  0  0  0  0  0  0  0
   -1.7254   -2.4880   -5.6342 O   0  0  0  0  0  0  0  0  0  0  0  0
   -2.7476   -2.1595   -6.4668 C   0  0  0  0  0  0  0  0  0  0  0  0
   -3.5323   -2.9343   -6.9829 O   0  0  0  0  0  0  0  0  0  0  0  0
   -2.6500   -0.7324   -6.8297 C   0  0  0  0  0  0  0  0  0  0  0  0
   -3.2894   -0.3529   -8.0123 C   0  0  0  0  0  0  0  0  0  0  0  0
   -2.9880    0.8711   -8.5800 C   0  0  0  0  0  0  0  0  0  0  0  0
   -2.0590    1.7159   -7.9602 C   0  0  0  0  0  0  0  0  0  0  0  0
   -1.7631    2.9681   -8.6415 C   0  0  0  0  0  0  0  0  0  0  0  0
   -2.8524    3.9588   -8.6262 C   0  0  0  0  0  0  0  0  0  0  0  0
   -3.5824    4.3229   -9.6263 N   0  0  0  0  0  0  0  0  0  0  0  0
   -4.4077    5.3217   -9.1364 C   0  0  0  0  0  0  0  0  0  0  0  0
   -4.9983    6.2263   -9.9597 C   0  0  0  0  0  0  0  0  0  0  0  0
   -5.3066    7.6314   -9.5357 C   0  0  0  0  0  0  0  0  0  0  0  0
   -6.2320    8.4007  -10.2614 C   0  0  0  0  0  0  0  0  0  0  0  0
   -6.9967    7.8337  -11.2079 F   0  0  0  0  0  0  0  0  0  0  0  0
   -6.3482    9.7786  -10.0812 C   0  0  0  0  0  0  0  0  0  0  0  0
   -5.5491   10.4128   -9.1315 C   0  0  0  0  0  0  0  0  0  0  0  0
   -5.6094   12.2060   -8.9788 S   0  0  0  0  0  0  0  0  0  0  0  0
   -4.9202   12.6204  -10.1954 O   0  0  0  0  0  0  0  0  0  0  0  0
   -7.0453   12.4619   -8.9369 O   0  0  0  0  0  0  0  0  0  0  0  0
   -4.8971   12.4594   -7.7300 O   0  5  0  0  0  0  0  0  0  0  0  0
   -4.6652    9.6873   -8.3489 C   0  0  0  0  0  0  0  0  0  0  0  0
   -4.5266    8.3271   -8.5848 C   0  0  0  0  0  0  0  0  0  0  0  0
   -3.5306    7.7295   -7.9157 F   0  0  0  0  0  0  0  0  0  0  0  0
   -4.9718    5.8150  -11.3382 C   0  0  0  0  0  0  0  0  0  0  0  0
   -5.5074    4.7596  -12.0488 C   0  0  0  0  0  0  0  0  0  0  0  0
   -4.5687    4.4792  -13.0843 C   0  0  0  0  0  0  0  0  0  0  0  0
   -3.5133    5.3845  -12.9595 C   0  0  0  0  0  0  0  0  0  0  0  0
   -4.0175    6.3747  -12.1523 N   0  0  0  0  0  0  0  0  0  0  0  0
   -2.1282    5.3026  -13.3811 C   0  0  0  0  0  0  0  0  0  0  0  0
   -1.7517    4.1389  -14.2646 C   0  0  0  0  0  0  0  0  0  0  0  0
   -1.1040    2.9801  -13.8010 C   0  0  0  0  0  0  0  0  0  0  0  0
   -0.7449    2.8599  -12.5154 F   0  0  0  0  0  0  0  0  0  0  0  0
   -0.8678    1.8852  -14.6345 C   0  0  0  0  0  0  0  0  0  0  0  0
   -1.3172    1.9239  -15.9538 C   0  0  0  0  0  0  0  0  0  0  0  0
   -1.1009    0.4640  -16.9970 S   0  0  0  0  0  0  0  0  0  0  0  0
    0.3214    0.5217  -17.3156 O   0  0  0  0  0  0  0  0  0  0  0  0
   -1.5070   -0.6241  -16.1110 O   0  0  0  0  0  0  0  0  0  0  0  0
   -2.0040    0.7098  -18.1187 O   0  5  0  0  0  0  0  0  0  0  0  0
   -1.9890    3.0436  -16.4407 C   0  0  0  0  0  0  0  0  0  0  0  0
   -2.1881    4.1367  -15.5985 C   0  0  0  0  0  0  0  0  0  0  0  0
   -2.8678    5.1886  -16.0848 F   0  0  0  0  0  0  0  0  0  0  0  0
   -1.1141    6.0490  -12.8522 C   0  0  0  0  0  0  0  0  0  0  0  0
    0.1908    5.5796  -12.8395 N   0  0  0  0  0  0  0  0  0  0  0  0
    0.7341    6.1259  -11.7848 C   0  0  0  0  0  0  0  0  0  0  0  0
    1.7247    5.4405  -10.9211 C   0  0  0  0  0  0  0  0  0  0  0  0
    3.0322    6.0190  -10.5248 C   0  0  0  0  0  0  0  0  0  0  0  0
    3.7443    6.8871  -11.3672 C   0  0  0  0  0  0  0  0  0  0  0  0
    3.3592    7.0574  -12.6410 F   0  0  0  0  0  0  0  0  0  0  0  0
    4.8255    7.6474  -10.9065 C   0  0  0  0  0  0  0  0  0  0  0  0
    5.2199    7.5415   -9.5718 C   0  0  0  0  0  0  0  0  0  0  0  0
    6.5042    8.6410   -8.9320 S   0  0  0  0  0  0  0  0  0  0  0  0
    7.6976    8.1303   -9.5972 O   0  0  0  0  0  0  0  0  0  0  0  0
    6.0372    9.9500   -9.3770 O   0  0  0  0  0  0  0  0  0  0  0  0
    6.4513    8.4235   -7.4886 O   0  5  0  0  0  0  0  0  0  0  0  0
    4.5692    6.6653   -8.7141 C   0  0  0  0  0  0  0  0  0  0  0  0
    3.4894    5.9285   -9.1921 C   0  0  0  0  0  0  0  0  0  0  0  0
    2.8374    5.1846   -8.2857 F   0  0  0  0  0  0  0  0  0  0  0  0
    1.0843    4.4179  -10.3083 C   0  0  0  0  0  0  0  0  0  0  0  0
    1.6399    3.2036   -9.7385 C   0  0  0  0  0  0  0  0  0  0  0  0
    0.6279    2.4889   -9.2050 C   0  0  0  0  0  0  0  0  0  0  0  0
   -0.6071    3.2501   -9.2662 C   0  0  0  0  0  0  0  0  0  0  0  0
   -0.2731    4.3202  -10.0396 N   0  0  0  0  0  0  0  0  0  0  0  0
    0.0320    7.2879  -11.2614 C   0  0  0  0  0  0  0  0  0  0  0  0
   -1.1110    7.1910  -11.9459 C   0  0  0  0  0  0  0  0  0  0  0  0
   -4.2603    5.3118   -7.7006 C   0  0  0  0  0  0  0  0  0  0  0  0
   -3.2457    4.5281   -7.3339 C   0  0  0  0  0  0  0  0  0  0  0  0
   -1.5095    1.3920   -6.7199 C   0  0  0  0  0  0  0  0  0  0  0  0
   -1.8166    0.1636   -6.1445 C   0  0  0  0  0  0  0  0  0  0  0  0
    0.6811    1.1478    0.3014 H   0  0  0  0  0  0  0  0  0  0  0  0
    2.1354    0.7111   -0.5630 H   0  0  0  0  0  0  0  0  0  0  0  0
    0.9321   -0.5048   -0.2072 H   0  0  0  0  0  0  0  0  0  0  0  0
    0.5467    1.8557   -2.0246 H   0  0  0  0  0  0  0  0  0  0  0  0
   -0.6439    0.5837   -1.6577 H   0  0  0  0  0  0  0  0  0  0  0  0
    0.6836   -0.3891   -7.1119 H   0  0  0  0  0  0  0  0  0  0  0  0
    1.8074   -0.5282   -9.2846 H   0  0  0  0  0  0  0  0  0  0  0  0
    2.0883   -3.6695   -4.1786 H   0  0  0  0  0  0  0  0  0  0  0  0
    3.4943   -2.6214   -4.6239 H   0  0  0  0  0  0  0  0  0  0  0  0
    1.2697   -3.4084   -6.4192 H   0  0  0  0  0  0  0  0  0  0  0  0
    2.9042   -4.0254   -6.4513 H   0  0  0  0  0  0  0  0  0  0  0  0
    2.5982   -2.3428   -6.8098 H   0  0  0  0  0  0  0  0  0  0  0  0
    1.1758   -2.2531   -1.1590 H   0  0  0  0  0  0  0  0  0  0  0  0
    0.8558   -3.3919   -2.5290 H   0  0  0  0  0  0  0  0  0  0  0  0
   -3.6700   -2.0688   -2.3537 H   0  0  0  0  0  0  0  0  0  0  0  0
   -3.0102   -3.5484   -1.6292 H   0  0  0  0  0  0  0  0  0  0  0  0
   -3.6655   -3.1204   -4.5091 H   0  0  0  0  0  0  0  0  0  0  0  0
   -4.5286   -4.1390   -3.2954 H   0  0  0  0  0  0  0  0  0  0  0  0
   -1.1140   -5.6805   -4.7153 H   0  0  0  0  0  0  0  0  0  0  0  0
   -1.0437   -4.1699   -3.7122 H   0  0  0  0  0  0  0  0  0  0  0  0
   -1.8466   -4.2959   -6.5467 H   0  0  0  0  0  0  0  0  0  0  0  0
   -0.2473   -3.8129   -5.8839 H   0  0  0  0  0  0  0  0  0  0  0  0
   -3.9788   -0.9790   -8.4570 H   0  0  0  0  0  0  0  0  0  0  0  0
   -3.4463    1.1613   -9.4579 H   0  0  0  0  0  0  0  0  0  0  0  0
   -7.0191   10.3233  -10.6453 H   0  0  0  0  0  0  0  0  0  0  0  0
   -4.1203   10.1500   -7.6046 H   0  0  0  0  0  0  0  0  0  0  0  0
   -6.4005    4.2750  -11.8682 H   0  0  0  0  0  0  0  0  0  0  0  0
   -4.6540    3.7392  -13.7986 H   0  0  0  0  0  0  0  0  0  0  0  0
   -3.7430    7.3201  -12.1565 H   0  0  0  0  0  0  0  0  0  0  0  0
   -0.3663    1.0567  -14.2781 H   0  0  0  0  0  0  0  0  0  0  0  0
   -2.3349    3.0634  -17.4128 H   0  0  0  0  0  0  0  0  0  0  0  0
    5.3269    8.2811  -11.5484 H   0  0  0  0  0  0  0  0  0  0  0  0
    4.8816    6.5616   -7.7360 H   0  0  0  0  0  0  0  0  0  0  0  0
    2.6361    2.9341   -9.7412 H   0  0  0  0  0  0  0  0  0  0  0  0
    0.7182    1.5394   -8.8108 H   0  0  0  0  0  0  0  0  0  0  0  0
   -0.9351    4.9659  -10.3774 H   0  0  0  0  0  0  0  0  0  0  0  0
    0.3310    7.9859  -10.5626 H   0  0  0  0  0  0  0  0  0  0  0  0
   -1.9002    7.8482  -11.8449 H   0  0  0  0  0  0  0  0  0  0  0  0
   -4.8590    5.8397   -7.0465 H   0  0  0  0  0  0  0  0  0  0  0  0
   -2.8463    4.3665   -6.3961 H   0  0  0  0  0  0  0  0  0  0  0  0
   -0.8837    2.0546   -6.2358 H   0  0  0  0  0  0  0  0  0  0  0  0
   -1.4337   -0.0869   -5.2195 H   0  0  0  0  0  0  0  0  0  0  0  0
  1  2  1  0  0  0  0
  1 95  1  0  0  0  0
  1 96  1  0  0  0  0
  1 97  1  0  0  0  0
  2  3  1  0  0  0  0
  2 98  1  0  0  0  0
  2 99  1  0  0  0  0
  3  4  2  0  0  0  0
  3 16  1  0  0  0  0
  4  5  1  0  0  0  0
  5  6  1  0  0  0  0
  5 13  1  0  0  0  0
  6  7  1  0  0  0  0
  6 12  2  0  0  0  0
  7  8  2  0  0  0  0
  7100  1  0  0  0  0
  8  9  1  0  0  0  0
  8101  1  0  0  0  0
  9 10  1  0  0  0  0
  9 11  2  0  0  0  0
 11 12  1  0  0  0  0
 13 14  1  0  0  0  0
 13 16  2  0  0  0  0
 14 15  1  0  0  0  0
 14102  1  0  0  0  0
 14103  1  0  0  0  0
 15104  1  0  0  0  0
 15105  1  0  0  0  0
 15106  1  0  0  0  0
 16 17  1  0  0  0  0
 17 18  1  0  0  0  0
 17107  1  0  0  0  0
 17108  1  0  0  0  0
 18 19  2  0  0  0  0
 18 20  1  0  0  0  0
 20 21  1  0  0  0  0
 21 22  1  0  0  0  0
 21109  1  0  0  0  0
 21110  1  0  0  0  0
 22 23  1  0  0  0  0
 22111  1  0  0  0  0
 22112  1  0  0  0  0
 23 24  1  0  0  0  0
 24 25  1  0  0  0  0
 24113  1  0  0  0  0
 24114  1  0  0  0  0
 25 26  1  0  0  0  0
 25115  1  0  0  0  0
 25116  1  0  0  0  0
 26 27  1  0  0  0  0
 27 28  2  0  0  0  0
 27 29  1  0  0  0  0
 29 30  1  0  0  0  0
 29 94  2  0  0  0  0
 30 31  2  0  0  0  0
 30117  1  0  0  0  0
 31 32  1  0  0  0  0
 31118  1  0  0  0  0
 32 33  1  0  0  0  0
 32 93  2  0  0  0  0
 33 34  1  0  0  0  0
 33 87  2  0  0  0  0
 34 35  2  0  0  0  0
 34 92  1  0  0  0  0
 35 36  1  0  0  0  0
 36 37  2  0  0  0  0
 36 91  1  0  0  0  0
 37 38  1  0  0  0  0
 37 50  1  0  0  0  0
 38 39  1  0  0  0  0
 38 48  2  0  0  0  0
 39 40  1  0  0  0  0
 39 41  2  0  0  0  0
 41 42  1  0  0  0  0
 41119  1  0  0  0  0
 42 43  1  0  0  0  0
 42 47  2  0  0  0  0
 43 44  2  0  0  0  0
 43 45  2  0  0  0  0
 43 46  1  0  0  0  0
 47 48  1  0  0  0  0
 47120  1  0  0  0  0
 48 49  1  0  0  0  0
 50 51  2  0  0  0  0
 50 54  1  0  0  0  0
 51 52  1  0  0  0  0
 51121  1  0  0  0  0
 52 53  2  0  0  0  0
 52122  1  0  0  0  0
 53 54  1  0  0  0  0
 53 55  1  0  0  0  0
 54123  1  0  0  0  0
 55 56  1  0  0  0  0
 55 68  2  0  0  0  0
 56 57  1  0  0  0  0
 56 66  2  0  0  0  0
 57 58  1  0  0  0  0
 57 59  2  0  0  0  0
 59 60  1  0  0  0  0
 59124  1  0  0  0  0
 60 61  1  0  0  0  0
 60 65  2  0  0  0  0
 61 62  2  0  0  0  0
 61 63  2  0  0  0  0
 61 64  1  0  0  0  0
 65 66  1  0  0  0  0
 65125  1  0  0  0  0
 66 67  1  0  0  0  0
 68 69  1  0  0  0  0
 68 90  1  0  0  0  0
 69 70  2  0  0  0  0
 70 71  1  0  0  0  0
 70 89  1  0  0  0  0
 71 72  1  0  0  0  0
 71 84  2  0  0  0  0
 72 73  1  0  0  0  0
 72 82  2  0  0  0  0
 73 74  1  0  0  0  0
 73 75  2  0  0  0  0
 75 76  1  0  0  0  0
 75126  1  0  0  0  0
 76 77  1  0  0  0  0
 76 81  2  0  0  0  0
 77 78  2  0  0  0  0
 77 79  2  0  0  0  0
 77 80  1  0  0  0  0
 81 82  1  0  0  0  0
 81127  1  0  0  0  0
 82 83  1  0  0  0  0
 84 85  1  0  0  0  0
 84 88  1  0  0  0  0
 85 86  2  0  0  0  0
 85128  1  0  0  0  0
 86 87  1  0  0  0  0
 86129  1  0  0  0  0
 87 88  1  0  0  0  0
 88130  1  0  0  0  0
 89 90  2  0  0  0  0
 89131  1  0  0  0  0
 90132  1  0  0  0  0
 91 92  2  0  0  0  0
 91133  1  0  0  0  0
 92134  1  0  0  0  0
 93 94  1  0  0  0  0
 93135  1  0  0  0  0
 94136  1  0  0  0  0
M  CHG  3  46  -1  64  -1  80  -1
M  END
$$$$
