4_5_12
 OpenBabel01312312313D

141151  0  0  0  0  0  0  0  0999 V2000
    3.2879   -0.0743   -0.0270 C   0  0  0  0  0  0  0  0  0  0  0  0
    1.7953   -0.0912   -0.0125 C   0  0  0  0  0  0  0  0  0  0  0  0
    1.0524   -0.9290    0.7870 C   0  0  0  0  0  0  0  0  0  0  0  0
   -0.3684   -0.8470    0.7799 C   0  0  0  0  0  0  0  0  0  0  0  0
   -1.3238    0.0797   -0.1352 C   0  0  0  0  0  0  0  0  0  0  0  0
   -3.1467   -0.4609   -0.7871 N   0  0  0  0  0  0  0  0  0  0  0  0
   -4.4408   -1.6300   -0.2251 C   0  0  0  0  0  0  0  0  0  0  0  0
   -4.3386   -2.5332    0.9960 C   0  0  0  0  0  0  0  0  0  0  0  0
   -3.5810   -2.3461    2.0923 F   0  0  0  0  0  0  0  0  0  0  0  0
   -5.0028   -3.7536    1.1780 C   0  0  0  0  0  0  0  0  0  0  0  0
   -5.8268   -4.2280    0.2015 C   0  0  0  0  0  0  0  0  0  0  0  0
   -6.0520   -3.4088   -0.9016 C   0  0  0  0  0  0  0  0  0  0  0  0
   -5.4183   -2.1294   -1.1170 C   0  0  0  0  0  0  0  0  0  0  0  0
   -6.1784   -1.2957   -2.3805 Cl  0  0  0  0  0  0  0  0  0  0  0  0
   -0.3331    1.0046   -0.5786 C   0  0  0  0  0  0  0  0  0  0  0  0
   -0.3641    2.2927    0.1737 C   0  0  0  0  0  0  0  0  0  0  0  0
   -0.9465    3.1615   -0.7934 C   0  0  0  0  0  0  0  0  0  0  0  0
   -1.4873    4.1371   -0.2536 O   0  0  0  0  0  0  0  0  0  0  0  0
   -1.0001    2.4951   -2.2942 O   0  0  0  0  0  0  0  0  0  0  0  0
   -1.6445    2.6287   -3.9905 C   0  0  0  0  0  0  0  0  0  0  0  0
   -2.9616    2.2374   -4.8512 C   0  0  0  0  0  0  0  0  0  0  0  0
   -4.3116    2.0002   -4.5341 O   0  0  0  0  0  0  0  0  0  0  0  0
   -4.6973    0.8209   -3.8867 C   0  0  0  0  0  0  0  0  0  0  0  0
   -4.1175   -0.5097   -4.3396 C   0  0  0  0  0  0  0  0  0  0  0  0
   -2.7675   -0.5088   -4.7385 O   0  0  0  0  0  0  0  0  0  0  0  0
   -2.2275   -1.8162   -4.9343 C   0  0  0  0  0  0  0  0  0  0  0  0
   -2.6133   -3.0210   -3.9514 C   0  0  0  0  0  0  0  0  0  0  0  0
   -1.8734   -3.1467   -2.6542 O   0  0  0  0  0  0  0  0  0  0  0  0
   -2.4306   -3.1921   -1.3411 C   0  0  0  0  0  0  0  0  0  0  0  0
   -3.0587   -4.1825   -1.0165 O   0  0  0  0  0  0  0  0  0  0  0  0
   -1.9810   -1.8787   -0.3664 C   0  0  0  0  0  0  0  0  0  0  0  0
   -2.7357   -0.6776    0.9784 C   0  0  0  0  0  0  0  0  0  0  0  0
   -3.1659    1.1014    0.4788 C   0  0  0  0  0  0  0  0  0  0  0  0
   -2.9093    1.7735   -1.2054 C   0  0  0  0  0  0  0  0  0  0  0  0
   -2.9802    3.4960   -1.9915 C   0  0  0  0  0  0  0  0  0  0  0  0
   -1.5189    4.6638   -2.4403 C   0  0  0  0  0  0  0  0  0  0  0  0
   -1.2510    5.8728   -1.9744 N   0  0  0  0  0  0  0  0  0  0  0  0
    0.1049    6.1999   -2.3445 C   0  0  0  0  0  0  0  0  0  0  0  0
    0.4351    7.2276   -3.1953 C   0  0  0  0  0  0  0  0  0  0  0  0
    1.7942    7.3794   -3.9383 C   0  0  0  0  0  0  0  0  0  0  0  0
    1.8781    8.1528   -5.1143 C   0  0  0  0  0  0  0  0  0  0  0  0
    0.7968    8.7649   -5.6134 F   0  0  0  0  0  0  0  0  0  0  0  0
    3.0724    8.3622   -5.8262 C   0  0  0  0  0  0  0  0  0  0  0  0
    4.2535    7.7655   -5.4051 C   0  0  0  0  0  0  0  0  0  0  0  0
    5.7924    8.1317   -6.2829 S   0  0  0  0  0  0  0  0  0  0  0  0
    5.4503    7.8059   -7.6640 O   0  0  0  0  0  0  0  0  0  0  0  0
    5.9736    9.5497   -5.9916 O   0  0  0  0  0  0  0  0  0  0  0  0
    6.7656    7.2375   -5.6608 O   0  5  0  0  0  0  0  0  0  0  0  0
    4.2442    6.9651   -4.2774 C   0  0  0  0  0  0  0  0  0  0  0  0
    3.0526    6.8365   -3.5378 C   0  0  0  0  0  0  0  0  0  0  0  0
    3.2117    6.2028   -2.3660 F   0  0  0  0  0  0  0  0  0  0  0  0
   -0.8154    7.8494   -3.5634 C   0  0  0  0  0  0  0  0  0  0  0  0
   -1.6425    7.7738   -4.6685 C   0  0  0  0  0  0  0  0  0  0  0  0
   -2.9673    8.1005   -4.2283 C   0  0  0  0  0  0  0  0  0  0  0  0
   -2.9361    8.3359   -2.8607 C   0  0  0  0  0  0  0  0  0  0  0  0
   -1.6104    8.2495   -2.5082 N   0  0  0  0  0  0  0  0  0  0  0  0
   -3.8532    8.7924   -1.8276 C   0  0  0  0  0  0  0  0  0  0  0  0
   -3.4677   10.0452   -1.0605 C   0  0  0  0  0  0  0  0  0  0  0  0
   -4.0113   10.3667    0.1912 C   0  0  0  0  0  0  0  0  0  0  0  0
   -4.9329    9.5965    0.7850 F   0  0  0  0  0  0  0  0  0  0  0  0
   -3.6113   11.4895    0.9035 C   0  0  0  0  0  0  0  0  0  0  0  0
   -2.5464   12.2522    0.4405 C   0  0  0  0  0  0  0  0  0  0  0  0
   -2.0871   13.7433    1.3187 S   0  0  0  0  0  0  0  0  0  0  0  0
   -3.0777   14.6839    0.8035 O   0  0  0  0  0  0  0  0  0  0  0  0
   -2.2499   13.3533    2.7155 O   0  0  0  0  0  0  0  0  0  0  0  0
   -0.7113   13.9790    0.8936 O   0  5  0  0  0  0  0  0  0  0  0  0
   -1.8715   11.8996   -0.7105 C   0  0  0  0  0  0  0  0  0  0  0  0
   -2.3775   10.8620   -1.4746 C   0  0  0  0  0  0  0  0  0  0  0  0
   -1.7434   10.6843   -2.6436 F   0  0  0  0  0  0  0  0  0  0  0  0
   -4.9881    8.0778   -1.5583 C   0  0  0  0  0  0  0  0  0  0  0  0
   -5.1500    6.7371   -1.7553 N   0  0  0  0  0  0  0  0  0  0  0  0
   -6.4079    6.3980   -1.5751 C   0  0  0  0  0  0  0  0  0  0  0  0
   -7.0023    5.0750   -2.0408 C   0  0  0  0  0  0  0  0  0  0  0  0
   -7.6712    3.9063   -1.3590 C   0  0  0  0  0  0  0  0  0  0  0  0
   -8.5488    3.1384   -2.1788 C   0  0  0  0  0  0  0  0  0  0  0  0
   -9.0137    3.6649   -3.3265 F   0  0  0  0  0  0  0  0  0  0  0  0
   -8.8728    1.8021   -1.9244 C   0  0  0  0  0  0  0  0  0  0  0  0
   -8.3649    1.1939   -0.7844 C   0  0  0  0  0  0  0  0  0  0  0  0
   -8.9036   -0.4942   -0.3817 S   0  0  0  0  0  0  0  0  0  0  0  0
  -10.1503   -0.2403    0.3304 O   0  0  0  0  0  0  0  0  0  0  0  0
   -9.0678   -1.1277   -1.6885 O   0  0  0  0  0  0  0  0  0  0  0  0
   -7.8111   -1.0079    0.4371 O   0  5  0  0  0  0  0  0  0  0  0  0
   -7.4836    1.8930    0.0490 C   0  0  0  0  0  0  0  0  0  0  0  0
   -7.1567    3.2374   -0.2346 C   0  0  0  0  0  0  0  0  0  0  0  0
   -6.2525    3.8398    0.5511 F   0  0  0  0  0  0  0  0  0  0  0  0
   -6.2005    4.5798   -3.0181 C   0  0  0  0  0  0  0  0  0  0  0  0
   -5.3779    5.3498   -3.9308 C   0  0  0  0  0  0  0  0  0  0  0  0
   -4.1004    5.0357   -3.6467 C   0  0  0  0  0  0  0  0  0  0  0  0
   -4.0718    3.9578   -2.6404 C   0  0  0  0  0  0  0  0  0  0  0  0
   -5.3810    3.4938   -2.6552 N   0  0  0  0  0  0  0  0  0  0  0  0
   -7.2063    7.5270   -1.1082 C   0  0  0  0  0  0  0  0  0  0  0  0
   -6.2982    8.5204   -1.1161 C   0  0  0  0  0  0  0  0  0  0  0  0
    0.8439    5.0100   -2.4160 C   0  0  0  0  0  0  0  0  0  0  0  0
   -0.0158    4.2480   -3.0496 C   0  0  0  0  0  0  0  0  0  0  0  0
   -2.1277    0.5707   -2.2774 C   0  0  0  0  0  0  0  0  0  0  0  0
   -1.5787   -1.0436   -1.9165 C   0  0  0  0  0  0  0  0  0  0  0  0
    1.0968    0.8350   -0.7535 C   0  0  0  0  0  0  0  0  0  0  0  0
    3.6596   -0.8577    0.5999 H   0  0  0  0  0  0  0  0  0  0  0  0
    3.6375    0.8695    0.3364 H   0  0  0  0  0  0  0  0  0  0  0  0
    3.6366   -0.2225   -1.0277 H   0  0  0  0  0  0  0  0  0  0  0  0
    1.5259   -1.6176    1.3925 H   0  0  0  0  0  0  0  0  0  0  0  0
   -0.8541   -1.4632    1.4503 H   0  0  0  0  0  0  0  0  0  0  0  0
   -3.4073    0.0184   -1.6066 H   0  0  0  0  0  0  0  0  0  0  0  0
   -4.8685   -4.2914    2.0485 H   0  0  0  0  0  0  0  0  0  0  0  0
   -6.2668   -5.1585    0.2768 H   0  0  0  0  0  0  0  0  0  0  0  0
   -6.7193   -3.7395   -1.6160 H   0  0  0  0  0  0  0  0  0  0  0  0
    0.6202    2.6120    0.4459 H   0  0  0  0  0  0  0  0  0  0  0  0
   -0.8954    2.2478    1.1014 H   0  0  0  0  0  0  0  0  0  0  0  0
   -0.8736    2.1401   -4.5490 H   0  0  0  0  0  0  0  0  0  0  0  0
   -1.9852    3.6309   -3.8339 H   0  0  0  0  0  0  0  0  0  0  0  0
   -2.6679    1.3315   -5.3391 H   0  0  0  0  0  0  0  0  0  0  0  0
   -3.1238    3.2234   -5.2338 H   0  0  0  0  0  0  0  0  0  0  0  0
   -5.7602    0.7461   -3.9849 H   0  0  0  0  0  0  0  0  0  0  0  0
   -4.3069    0.9398   -2.8976 H   0  0  0  0  0  0  0  0  0  0  0  0
   -4.7004   -0.8516   -5.1692 H   0  0  0  0  0  0  0  0  0  0  0  0
   -4.1549   -1.1408   -3.4763 H   0  0  0  0  0  0  0  0  0  0  0  0
   -1.1631   -1.7160   -4.8904 H   0  0  0  0  0  0  0  0  0  0  0  0
   -2.6678   -2.1174   -5.8618 H   0  0  0  0  0  0  0  0  0  0  0  0
   -2.4610   -3.9317   -4.4921 H   0  0  0  0  0  0  0  0  0  0  0  0
   -3.6212   -2.8107   -3.6602 H   0  0  0  0  0  0  0  0  0  0  0  0
   -2.8974   -1.0055    1.9435 H   0  0  0  0  0  0  0  0  0  0  0  0
   -3.5670    1.7253    1.1963 H   0  0  0  0  0  0  0  0  0  0  0  0
    3.0712    8.9623   -6.6658 H   0  0  0  0  0  0  0  0  0  0  0  0
    5.0992    6.4686   -3.9817 H   0  0  0  0  0  0  0  0  0  0  0  0
   -1.3594    7.5282   -5.6301 H   0  0  0  0  0  0  0  0  0  0  0  0
   -3.8051    8.1521   -4.8287 H   0  0  0  0  0  0  0  0  0  0  0  0
   -1.2675    8.4498   -1.6073 H   0  0  0  0  0  0  0  0  0  0  0  0
   -4.1020   11.7558    1.7714 H   0  0  0  0  0  0  0  0  0  0  0  0
   -1.0124   12.3962   -0.9941 H   0  0  0  0  0  0  0  0  0  0  0  0
   -9.4794    1.2767   -2.5733 H   0  0  0  0  0  0  0  0  0  0  0  0
   -7.0722    1.4253    0.8718 H   0  0  0  0  0  0  0  0  0  0  0  0
   -5.7067    6.0080   -4.6545 H   0  0  0  0  0  0  0  0  0  0  0  0
   -3.2696    5.4802   -4.0677 H   0  0  0  0  0  0  0  0  0  0  0  0
   -5.6796    2.5783   -2.4505 H   0  0  0  0  0  0  0  0  0  0  0  0
   -8.2031    7.5560   -0.8424 H   0  0  0  0  0  0  0  0  0  0  0  0
   -6.5102    9.4914   -0.8380 H   0  0  0  0  0  0  0  0  0  0  0  0
    1.7920    4.7954   -2.0696 H   0  0  0  0  0  0  0  0  0  0  0  0
    0.1910    3.5407   -3.7720 H   0  0  0  0  0  0  0  0  0  0  0  0
   -1.9809    0.8784   -3.2514 H   0  0  0  0  0  0  0  0  0  0  0  0
   -1.0027   -1.5404   -2.6140 H   0  0  0  0  0  0  0  0  0  0  0  0
    1.5975    1.4169   -1.4432 H   0  0  0  0  0  0  0  0  0  0  0  0
  1  2  1  0  0  0  0
  1 98  1  0  0  0  0
  1 99  1  0  0  0  0
  1100  1  0  0  0  0
  2  3  1  0  0  0  0
  2 97  2  0  0  0  0
  3  4  2  0  0  0  0
  3101  1  0  0  0  0
  4  5  1  0  0  0  0
  4102  1  0  0  0  0
  5  6  1  0  0  0  0
  5 15  2  0  0  0  0
  6  7  1  0  0  0  0
  6103  1  0  0  0  0
  7  8  1  0  0  0  0
  7 13  2  0  0  0  0
  8  9  1  0  0  0  0
  8 10  2  0  0  0  0
 10 11  1  0  0  0  0
 10104  1  0  0  0  0
 11 12  2  0  0  0  0
 11105  1  0  0  0  0
 12 13  1  0  0  0  0
 12106  1  0  0  0  0
 13 14  1  0  0  0  0
 15 16  1  0  0  0  0
 15 97  1  0  0  0  0
 16 17  1  0  0  0  0
 16107  1  0  0  0  0
 16108  1  0  0  0  0
 17 18  2  0  0  0  0
 17 19  1  0  0  0  0
 19 20  1  0  0  0  0
 20 21  1  0  0  0  0
 20109  1  0  0  0  0
 20110  1  0  0  0  0
 21 22  1  0  0  0  0
 21111  1  0  0  0  0
 21112  1  0  0  0  0
 22 23  1  0  0  0  0
 23 24  1  0  0  0  0
 23113  1  0  0  0  0
 23114  1  0  0  0  0
 24 25  1  0  0  0  0
 24115  1  0  0  0  0
 24116  1  0  0  0  0
 25 26  1  0  0  0  0
 26 27  1  0  0  0  0
 26117  1  0  0  0  0
 26118  1  0  0  0  0
 27 28  1  0  0  0  0
 27119  1  0  0  0  0
 27120  1  0  0  0  0
 28 29  1  0  0  0  0
 29 30  2  0  0  0  0
 29 31  1  0  0  0  0
 31 32  1  0  0  0  0
 31 96  2  0  0  0  0
 32 33  2  0  0  0  0
 32121  1  0  0  0  0
 33 34  1  0  0  0  0
 33122  1  0  0  0  0
 34 35  1  0  0  0  0
 34 95  2  0  0  0  0
 35 36  1  0  0  0  0
 35 89  2  0  0  0  0
 36 37  2  0  0  0  0
 36 94  1  0  0  0  0
 37 38  1  0  0  0  0
 38 39  2  0  0  0  0
 38 93  1  0  0  0  0
 39 40  1  0  0  0  0
 39 52  1  0  0  0  0
 40 41  1  0  0  0  0
 40 50  2  0  0  0  0
 41 42  1  0  0  0  0
 41 43  2  0  0  0  0
 43 44  1  0  0  0  0
 43123  1  0  0  0  0
 44 45  1  0  0  0  0
 44 49  2  0  0  0  0
 45 46  2  0  0  0  0
 45 47  2  0  0  0  0
 45 48  1  0  0  0  0
 49 50  1  0  0  0  0
 49124  1  0  0  0  0
 50 51  1  0  0  0  0
 52 53  2  0  0  0  0
 52 56  1  0  0  0  0
 53 54  1  0  0  0  0
 53125  1  0  0  0  0
 54 55  2  0  0  0  0
 54126  1  0  0  0  0
 55 56  1  0  0  0  0
 55 57  1  0  0  0  0
 56127  1  0  0  0  0
 57 58  1  0  0  0  0
 57 70  2  0  0  0  0
 58 59  1  0  0  0  0
 58 68  2  0  0  0  0
 59 60  1  0  0  0  0
 59 61  2  0  0  0  0
 61 62  1  0  0  0  0
 61128  1  0  0  0  0
 62 63  1  0  0  0  0
 62 67  2  0  0  0  0
 63 64  2  0  0  0  0
 63 65  2  0  0  0  0
 63 66  1  0  0  0  0
 67 68  1  0  0  0  0
 67129  1  0  0  0  0
 68 69  1  0  0  0  0
 70 71  1  0  0  0  0
 70 92  1  0  0  0  0
 71 72  2  0  0  0  0
 72 73  1  0  0  0  0
 72 91  1  0  0  0  0
 73 74  1  0  0  0  0
 73 86  2  0  0  0  0
 74 75  1  0  0  0  0
 74 84  2  0  0  0  0
 75 76  1  0  0  0  0
 75 77  2  0  0  0  0
 77 78  1  0  0  0  0
 77130  1  0  0  0  0
 78 79  1  0  0  0  0
 78 83  2  0  0  0  0
 79 80  2  0  0  0  0
 79 81  2  0  0  0  0
 79 82  1  0  0  0  0
 83 84  1  0  0  0  0
 83131  1  0  0  0  0
 84 85  1  0  0  0  0
 86 87  1  0  0  0  0
 86 90  1  0  0  0  0
 87 88  2  0  0  0  0
 87132  1  0  0  0  0
 88 89  1  0  0  0  0
 88133  1  0  0  0  0
 89 90  1  0  0  0  0
 90134  1  0  0  0  0
 91 92  2  0  0  0  0
 91135  1  0  0  0  0
 92136  1  0  0  0  0
 93 94  2  0  0  0  0
 93137  1  0  0  0  0
 94138  1  0  0  0  0
 95 96  1  0  0  0  0
 95139  1  0  0  0  0
 96140  1  0  0  0  0
 97141  1  0  0  0  0
M  CHG  3  48  -1  66  -1  82  -1
M  END
$$$$
