4_5_7868
 OpenBabel04152301373D

140150  0  0  0  0  0  0  0  0999 V2000
    2.2275    0.0788    0.0451 C   0  0  0  0  0  0  0  0  0  0  0  0
    0.7799   -0.1921    0.0105 C   0  0  0  0  0  0  0  0  0  0  0  0
    0.0185   -1.3317   -0.0618 C   0  0  0  0  0  0  0  0  0  0  0  0
   -1.3166   -0.8621   -0.0902 C   0  0  0  0  0  0  0  0  0  0  0  0
   -2.5745   -1.6663   -0.1886 C   0  0  0  0  0  0  0  0  0  0  0  0
   -3.4621   -1.3040    0.9034 N   0  0  0  0  0  0  0  0  0  0  0  0
   -4.8342   -2.1710    1.2117 S   0  0  0  0  0  0  0  0  0  0  0  0
   -4.5127   -3.5571    0.9898 O   0  0  0  0  0  0  0  0  0  0  0  0
   -5.3513   -1.7041    2.4855 O   0  0  0  0  0  0  0  0  0  0  0  0
   -6.0045   -1.6888   -0.0164 C   0  0  0  0  0  0  0  0  0  0  0  0
   -6.8067   -2.6690   -0.6126 C   0  0  0  0  0  0  0  0  0  0  0  0
   -7.8339   -2.2836   -1.4745 C   0  0  0  0  0  0  0  0  0  0  0  0
   -8.0390   -0.9265   -1.7608 C   0  0  0  0  0  0  0  0  0  0  0  0
   -9.1862   -0.5763   -2.6218 C   0  0  0  0  0  0  0  0  0  0  0  0
  -10.2776   -1.1036   -2.4954 O   0  0  0  0  0  0  0  0  0  0  0  0
   -8.7959    0.2680   -3.6085 O   0  0  0  0  0  0  0  0  0  0  0  0
   -9.7820    0.4865   -4.6266 C   0  0  0  0  0  0  0  0  0  0  0  0
   -9.3242    0.1339   -6.0443 C   0  0  0  0  0  0  0  0  0  0  0  0
   -8.6973   -1.1001   -6.3502 O   0  0  0  0  0  0  0  0  0  0  0  0
   -7.7304   -1.6533   -5.4804 C   0  0  0  0  0  0  0  0  0  0  0  0
   -6.4466   -0.8723   -5.1313 C   0  0  0  0  0  0  0  0  0  0  0  0
   -6.1769    0.3949   -5.6940 O   0  0  0  0  0  0  0  0  0  0  0  0
   -6.1049    0.5639   -7.0991 C   0  0  0  0  0  0  0  0  0  0  0  0
   -5.4275   -0.4435   -8.0346 C   0  0  0  0  0  0  0  0  0  0  0  0
   -5.6668   -1.8230   -7.7485 O   0  0  0  0  0  0  0  0  0  0  0  0
   -4.5771   -2.5066   -7.3197 C   0  0  0  0  0  0  0  0  0  0  0  0
   -3.4559   -2.0683   -7.1287 O   0  0  0  0  0  0  0  0  0  0  0  0
   -4.9798   -3.8694   -6.9378 C   0  0  0  0  0  0  0  0  0  0  0  0
   -4.8000   -4.2630   -5.6059 C   0  0  0  0  0  0  0  0  0  0  0  0
   -5.0887   -5.5709   -5.2248 C   0  0  0  0  0  0  0  0  0  0  0  0
   -5.5237   -6.4960   -6.1831 C   0  0  0  0  0  0  0  0  0  0  0  0
   -5.6017   -7.9327   -5.8317 C   0  0  0  0  0  0  0  0  0  0  0  0
   -4.4358   -8.8212   -6.1645 C   0  0  0  0  0  0  0  0  0  0  0  0
   -4.3004  -10.1088   -5.9879 N   0  0  0  0  0  0  0  0  0  0  0  0
   -3.0328  -10.4229   -6.4615 C   0  0  0  0  0  0  0  0  0  0  0  0
   -2.4087  -11.6236   -6.4692 C   0  0  0  0  0  0  0  0  0  0  0  0
   -1.0202  -11.6853   -7.0388 C   0  0  0  0  0  0  0  0  0  0  0  0
   -0.7806  -12.3227   -8.2660 C   0  0  0  0  0  0  0  0  0  0  0  0
   -1.8005  -12.8315   -8.9749 F   0  0  0  0  0  0  0  0  0  0  0  0
    0.5056  -12.4533   -8.7780 C   0  0  0  0  0  0  0  0  0  0  0  0
    1.5779  -11.9201   -8.0609 C   0  0  0  0  0  0  0  0  0  0  0  0
    3.2379  -12.0714   -8.7541 S   0  0  0  0  0  0  0  0  0  0  0  0
    3.4975  -13.4984   -8.6027 O   0  0  0  0  0  0  0  0  0  0  0  0
    3.0421  -11.6002  -10.1221 O   0  0  0  0  0  0  0  0  0  0  0  0
    4.0387  -11.1915   -7.9075 O   0  5  0  0  0  0  0  0  0  0  0  0
    1.3748  -11.2587   -6.8499 C   0  0  0  0  0  0  0  0  0  0  0  0
    0.0817  -11.1603   -6.3451 C   0  0  0  0  0  0  0  0  0  0  0  0
   -0.0975  -10.5171   -5.1802 F   0  0  0  0  0  0  0  0  0  0  0  0
   -2.9968  -12.8416   -5.9786 C   0  0  0  0  0  0  0  0  0  0  0  0
   -2.4432  -14.1093   -5.9450 C   0  0  0  0  0  0  0  0  0  0  0  0
   -3.3995  -14.9894   -5.4297 C   0  0  0  0  0  0  0  0  0  0  0  0
   -4.5305  -14.2618   -5.0944 C   0  0  0  0  0  0  0  0  0  0  0  0
   -4.2714  -12.9468   -5.4418 N   0  0  0  0  0  0  0  0  0  0  0  0
   -5.7588  -14.7364   -4.5060 C   0  0  0  0  0  0  0  0  0  0  0  0
   -5.8557  -16.2079   -4.2095 C   0  0  0  0  0  0  0  0  0  0  0  0
   -5.0825  -16.7782   -3.1850 C   0  0  0  0  0  0  0  0  0  0  0  0
   -4.3128  -16.0018   -2.4059 F   0  0  0  0  0  0  0  0  0  0  0  0
   -5.0616  -18.1514   -2.9674 C   0  0  0  0  0  0  0  0  0  0  0  0
   -5.8446  -18.9771   -3.7753 C   0  0  0  0  0  0  0  0  0  0  0  0
   -5.8031  -20.7580   -3.4810 S   0  0  0  0  0  0  0  0  0  0  0  0
   -4.4715  -21.1099   -3.9616 O   0  0  0  0  0  0  0  0  0  0  0  0
   -5.9982  -20.8371   -2.0364 O   0  0  0  0  0  0  0  0  0  0  0  0
   -6.9140  -21.2603   -4.2843 O   0  5  0  0  0  0  0  0  0  0  0  0
   -6.6505  -18.4429   -4.7810 C   0  0  0  0  0  0  0  0  0  0  0  0
   -6.6364  -17.0675   -4.9975 C   0  0  0  0  0  0  0  0  0  0  0  0
   -7.4009  -16.5711   -5.9831 F   0  0  0  0  0  0  0  0  0  0  0  0
   -6.8193  -13.9527   -4.1897 C   0  0  0  0  0  0  0  0  0  0  0  0
   -6.9672  -12.5770   -4.3395 N   0  0  0  0  0  0  0  0  0  0  0  0
   -8.1676  -12.2930   -3.8922 C   0  0  0  0  0  0  0  0  0  0  0  0
   -8.8485  -10.9522   -3.7941 C   0  0  0  0  0  0  0  0  0  0  0  0
  -10.2161  -10.8313   -3.2231 C   0  0  0  0  0  0  0  0  0  0  0  0
  -11.3153  -10.5036   -4.0318 C   0  0  0  0  0  0  0  0  0  0  0  0
  -11.1484  -10.3101   -5.3493 F   0  0  0  0  0  0  0  0  0  0  0  0
  -12.5889  -10.3410   -3.4986 C   0  0  0  0  0  0  0  0  0  0  0  0
  -12.7786  -10.5298   -2.1288 C   0  0  0  0  0  0  0  0  0  0  0  0
  -14.4373  -10.2975   -1.4541 S   0  0  0  0  0  0  0  0  0  0  0  0
  -14.6045   -8.8538   -1.5853 O   0  0  0  0  0  0  0  0  0  0  0  0
  -15.2489  -11.1154   -2.3495 O   0  0  0  0  0  0  0  0  0  0  0  0
  -14.3188  -10.7955   -0.0876 O   0  5  0  0  0  0  0  0  0  0  0  0
  -11.7167  -10.8880   -1.2988 C   0  0  0  0  0  0  0  0  0  0  0  0
  -10.4465  -11.0215   -1.8526 C   0  0  0  0  0  0  0  0  0  0  0  0
   -9.4295  -11.3543   -1.0431 F   0  0  0  0  0  0  0  0  0  0  0  0
   -8.2069   -9.8501   -4.2320 C   0  0  0  0  0  0  0  0  0  0  0  0
   -8.7334   -8.4857   -4.2040 C   0  0  0  0  0  0  0  0  0  0  0  0
   -7.8501   -7.6584   -4.7898 C   0  0  0  0  0  0  0  0  0  0  0  0
   -6.6812   -8.4321   -5.2046 C   0  0  0  0  0  0  0  0  0  0  0  0
   -6.9679   -9.7148   -4.8109 N   0  0  0  0  0  0  0  0  0  0  0  0
   -8.9275  -13.4638   -3.4302 C   0  0  0  0  0  0  0  0  0  0  0  0
   -8.0497  -14.4434   -3.6047 C   0  0  0  0  0  0  0  0  0  0  0  0
   -2.4492   -9.1971   -6.9611 C   0  0  0  0  0  0  0  0  0  0  0  0
   -3.2649   -8.1694   -6.7755 C   0  0  0  0  0  0  0  0  0  0  0  0
   -5.7384   -6.0814   -7.5095 C   0  0  0  0  0  0  0  0  0  0  0  0
   -5.4689   -4.7647   -7.8898 C   0  0  0  0  0  0  0  0  0  0  0  0
   -7.2032    0.0465   -1.2070 C   0  0  0  0  0  0  0  0  0  0  0  0
   -6.1976   -0.3447   -0.3204 C   0  0  0  0  0  0  0  0  0  0  0  0
   -5.4479    0.6089    0.2480 F   0  0  0  0  0  0  0  0  0  0  0  0
   -1.3577    0.4773   -0.0127 N   0  0  0  0  0  0  0  0  0  0  0  0
   -0.0390    0.8921    0.0462 O   0  0  0  0  0  0  0  0  0  0  0  0
    2.7643   -0.8462    0.0121 H   0  0  0  0  0  0  0  0  0  0  0  0
    2.4712    0.6007    0.9468 H   0  0  0  0  0  0  0  0  0  0  0  0
    2.4984    0.6787   -0.7985 H   0  0  0  0  0  0  0  0  0  0  0  0
    0.3455   -2.3101   -0.0893 H   0  0  0  0  0  0  0  0  0  0  0  0
   -2.3385   -2.7081   -0.1269 H   0  0  0  0  0  0  0  0  0  0  0  0
   -3.0557   -1.4667   -1.1232 H   0  0  0  0  0  0  0  0  0  0  0  0
   -3.7594   -0.3441    0.7285 H   0  0  0  0  0  0  0  0  0  0  0  0
   -6.6397   -3.6683   -0.4162 H   0  0  0  0  0  0  0  0  0  0  0  0
   -8.4435   -2.9983   -1.9018 H   0  0  0  0  0  0  0  0  0  0  0  0
  -10.0536    1.5214   -4.6114 H   0  0  0  0  0  0  0  0  0  0  0  0
  -10.5998   -0.1657   -4.4013 H   0  0  0  0  0  0  0  0  0  0  0  0
   -8.6349    0.8991   -6.3345 H   0  0  0  0  0  0  0  0  0  0  0  0
  -10.2556    0.0453   -6.5635 H   0  0  0  0  0  0  0  0  0  0  0  0
   -7.4163   -2.5768   -5.9203 H   0  0  0  0  0  0  0  0  0  0  0  0
   -8.2470   -1.6938   -4.5442 H   0  0  0  0  0  0  0  0  0  0  0  0
   -5.6263   -1.5036   -5.4024 H   0  0  0  0  0  0  0  0  0  0  0  0
   -6.5942   -0.6379   -4.0978 H   0  0  0  0  0  0  0  0  0  0  0  0
   -5.6019    1.4950   -7.2571 H   0  0  0  0  0  0  0  0  0  0  0  0
   -7.1320    0.4523   -7.3776 H   0  0  0  0  0  0  0  0  0  0  0  0
   -4.3716   -0.2773   -7.9854 H   0  0  0  0  0  0  0  0  0  0  0  0
   -5.8532   -0.2712   -9.0010 H   0  0  0  0  0  0  0  0  0  0  0  0
   -4.4544   -3.5854   -4.9085 H   0  0  0  0  0  0  0  0  0  0  0  0
   -4.9826   -5.8580   -4.2393 H   0  0  0  0  0  0  0  0  0  0  0  0
    0.6651  -12.9375   -9.6753 H   0  0  0  0  0  0  0  0  0  0  0  0
    2.1707  -10.8489   -6.3364 H   0  0  0  0  0  0  0  0  0  0  0  0
   -1.4894  -14.3615   -6.2479 H   0  0  0  0  0  0  0  0  0  0  0  0
   -3.2830  -16.0087   -5.3179 H   0  0  0  0  0  0  0  0  0  0  0  0
   -4.8990  -12.1973   -5.3251 H   0  0  0  0  0  0  0  0  0  0  0  0
   -4.4756  -18.5541   -2.2194 H   0  0  0  0  0  0  0  0  0  0  0  0
   -7.2479  -19.0577   -5.3556 H   0  0  0  0  0  0  0  0  0  0  0  0
  -13.3823  -10.0845   -4.1067 H   0  0  0  0  0  0  0  0  0  0  0  0
  -11.8699  -11.0513   -0.2914 H   0  0  0  0  0  0  0  0  0  0  0  0
   -9.6394   -8.2028   -3.7988 H   0  0  0  0  0  0  0  0  0  0  0  0
   -7.9766   -6.6431   -4.9246 H   0  0  0  0  0  0  0  0  0  0  0  0
   -6.3447  -10.4673   -4.9317 H   0  0  0  0  0  0  0  0  0  0  0  0
   -9.8917  -13.5113   -3.0655 H   0  0  0  0  0  0  0  0  0  0  0  0
   -8.2220  -15.4298   -3.3552 H   0  0  0  0  0  0  0  0  0  0  0  0
   -1.5194   -9.1316   -7.4040 H   0  0  0  0  0  0  0  0  0  0  0  0
   -3.1181   -7.1729   -7.0003 H   0  0  0  0  0  0  0  0  0  0  0  0
   -6.0970   -6.7535   -8.2057 H   0  0  0  0  0  0  0  0  0  0  0  0
   -5.6294   -4.4581   -8.8620 H   0  0  0  0  0  0  0  0  0  0  0  0
   -7.3274    1.0418   -1.4500 H   0  0  0  0  0  0  0  0  0  0  0  0
  1  2  1  0  0  0  0
  1 99  1  0  0  0  0
  1100  1  0  0  0  0
  1101  1  0  0  0  0
  2  3  2  0  0  0  0
  2 98  1  0  0  0  0
  3  4  1  0  0  0  0
  3102  1  0  0  0  0
  4  5  1  0  0  0  0
  4 97  2  0  0  0  0
  5  6  1  0  0  0  0
  5103  1  0  0  0  0
  5104  1  0  0  0  0
  6  7  1  0  0  0  0
  6105  1  0  0  0  0
  7  8  2  0  0  0  0
  7  9  2  0  0  0  0
  7 10  1  0  0  0  0
 10 11  1  0  0  0  0
 10 95  2  0  0  0  0
 11 12  2  0  0  0  0
 11106  1  0  0  0  0
 12 13  1  0  0  0  0
 12107  1  0  0  0  0
 13 14  1  0  0  0  0
 13 94  2  0  0  0  0
 14 15  2  0  0  0  0
 14 16  1  0  0  0  0
 16 17  1  0  0  0  0
 17 18  1  0  0  0  0
 17108  1  0  0  0  0
 17109  1  0  0  0  0
 18 19  1  0  0  0  0
 18110  1  0  0  0  0
 18111  1  0  0  0  0
 19 20  1  0  0  0  0
 20 21  1  0  0  0  0
 20112  1  0  0  0  0
 20113  1  0  0  0  0
 21 22  1  0  0  0  0
 21114  1  0  0  0  0
 21115  1  0  0  0  0
 22 23  1  0  0  0  0
 23 24  1  0  0  0  0
 23116  1  0  0  0  0
 23117  1  0  0  0  0
 24 25  1  0  0  0  0
 24118  1  0  0  0  0
 24119  1  0  0  0  0
 25 26  1  0  0  0  0
 26 27  2  0  0  0  0
 26 28  1  0  0  0  0
 28 29  1  0  0  0  0
 28 93  2  0  0  0  0
 29 30  2  0  0  0  0
 29120  1  0  0  0  0
 30 31  1  0  0  0  0
 30121  1  0  0  0  0
 31 32  1  0  0  0  0
 31 92  2  0  0  0  0
 32 33  1  0  0  0  0
 32 86  2  0  0  0  0
 33 34  2  0  0  0  0
 33 91  1  0  0  0  0
 34 35  1  0  0  0  0
 35 36  2  0  0  0  0
 35 90  1  0  0  0  0
 36 37  1  0  0  0  0
 36 49  1  0  0  0  0
 37 38  1  0  0  0  0
 37 47  2  0  0  0  0
 38 39  1  0  0  0  0
 38 40  2  0  0  0  0
 40 41  1  0  0  0  0
 40122  1  0  0  0  0
 41 42  1  0  0  0  0
 41 46  2  0  0  0  0
 42 43  2  0  0  0  0
 42 44  2  0  0  0  0
 42 45  1  0  0  0  0
 46 47  1  0  0  0  0
 46123  1  0  0  0  0
 47 48  1  0  0  0  0
 49 50  2  0  0  0  0
 49 53  1  0  0  0  0
 50 51  1  0  0  0  0
 50124  1  0  0  0  0
 51 52  2  0  0  0  0
 51125  1  0  0  0  0
 52 53  1  0  0  0  0
 52 54  1  0  0  0  0
 53126  1  0  0  0  0
 54 55  1  0  0  0  0
 54 67  2  0  0  0  0
 55 56  1  0  0  0  0
 55 65  2  0  0  0  0
 56 57  1  0  0  0  0
 56 58  2  0  0  0  0
 58 59  1  0  0  0  0
 58127  1  0  0  0  0
 59 60  1  0  0  0  0
 59 64  2  0  0  0  0
 60 61  2  0  0  0  0
 60 62  2  0  0  0  0
 60 63  1  0  0  0  0
 64 65  1  0  0  0  0
 64128  1  0  0  0  0
 65 66  1  0  0  0  0
 67 68  1  0  0  0  0
 67 89  1  0  0  0  0
 68 69  2  0  0  0  0
 69 70  1  0  0  0  0
 69 88  1  0  0  0  0
 70 71  1  0  0  0  0
 70 83  2  0  0  0  0
 71 72  1  0  0  0  0
 71 81  2  0  0  0  0
 72 73  1  0  0  0  0
 72 74  2  0  0  0  0
 74 75  1  0  0  0  0
 74129  1  0  0  0  0
 75 76  1  0  0  0  0
 75 80  2  0  0  0  0
 76 77  2  0  0  0  0
 76 78  2  0  0  0  0
 76 79  1  0  0  0  0
 80 81  1  0  0  0  0
 80130  1  0  0  0  0
 81 82  1  0  0  0  0
 83 84  1  0  0  0  0
 83 87  1  0  0  0  0
 84 85  2  0  0  0  0
 84131  1  0  0  0  0
 85 86  1  0  0  0  0
 85132  1  0  0  0  0
 86 87  1  0  0  0  0
 87133  1  0  0  0  0
 88 89  2  0  0  0  0
 88134  1  0  0  0  0
 89135  1  0  0  0  0
 90 91  2  0  0  0  0
 90136  1  0  0  0  0
 91137  1  0  0  0  0
 92 93  1  0  0  0  0
 92138  1  0  0  0  0
 93139  1  0  0  0  0
 94 95  1  0  0  0  0
 94140  1  0  0  0  0
 95 96  1  0  0  0  0
 97 98  1  0  0  0  0
M  CHG  3  45  -1  63  -1  79  -1
M  END
$$$$
