4_5_8490
 OpenBabel04152301373D

148159  0  0  1  0  0  0  0  0999 V2000
    0.2635    2.1526   -0.4212 C   0  0  0  0  0  0  0  0  0  0  0  0
   -0.2119    1.4333    0.8417 C   0  0  2  0  0  0  0  0  0  0  0  0
    0.4719    0.1059    1.2344 C   0  0  0  0  0  0  0  0  0  0  0  0
    0.4161   -0.3695    2.3628 O   0  0  0  0  0  0  0  0  0  0  0  0
    1.0484   -0.5155    0.1731 O   0  0  0  0  0  0  0  0  0  0  0  0
    1.7450   -1.7522    0.4087 C   0  0  0  0  0  0  0  0  0  0  0  0
    2.9826   -1.9232   -0.4899 C   0  0  0  0  0  0  0  0  0  0  0  0
    3.8163   -0.7962   -0.7006 O   0  0  0  0  0  0  0  0  0  0  0  0
    3.2186    0.3741   -1.2375 C   0  0  0  0  0  0  0  0  0  0  0  0
    2.1822    0.2571   -2.3863 C   0  0  0  0  0  0  0  0  0  0  0  0
    2.3620   -0.6974   -3.4174 O   0  0  0  0  0  0  0  0  0  0  0  0
    3.6543   -0.8583   -3.9679 C   0  0  0  0  0  0  0  0  0  0  0  0
    4.3115    0.3652   -4.6208 C   0  0  0  0  0  0  0  0  0  0  0  0
    4.5675    1.4664   -3.7255 O   0  0  0  0  0  0  0  0  0  0  0  0
    3.8668    2.6028   -3.9597 C   0  0  0  0  0  0  0  0  0  0  0  0
    3.0389    2.7786   -4.8480 O   0  0  0  0  0  0  0  0  0  0  0  0
    4.1031    3.6044   -2.8968 C   0  0  0  0  0  0  0  0  0  0  0  0
    2.9993    4.1148   -2.1991 C   0  0  0  0  0  0  0  0  0  0  0  0
    3.1596    5.1611   -1.2837 C   0  0  0  0  0  0  0  0  0  0  0  0
    4.4227    5.7332   -1.0815 C   0  0  0  0  0  0  0  0  0  0  0  0
    4.5644    6.9923   -0.2954 C   0  0  0  0  0  0  0  0  0  0  0  0
    4.7328    8.2976   -1.0325 C   0  0  0  0  0  0  0  0  0  0  0  0
    4.9775    9.4945   -0.5640 N   0  0  0  0  0  0  0  0  0  0  0  0
    5.0566   10.3299   -1.6741 C   0  0  0  0  0  0  0  0  0  0  0  0
    5.2826   11.6658   -1.7182 C   0  0  0  0  0  0  0  0  0  0  0  0
    5.3747   12.3166   -3.0737 C   0  0  0  0  0  0  0  0  0  0  0  0
    4.2522   12.4869   -3.8995 C   0  0  0  0  0  0  0  0  0  0  0  0
    3.0524   12.0238   -3.5142 F   0  0  0  0  0  0  0  0  0  0  0  0
    4.3528   13.0921   -5.1494 C   0  0  0  0  0  0  0  0  0  0  0  0
    5.5943   13.5669   -5.5770 C   0  0  0  0  0  0  0  0  0  0  0  0
    5.7085   14.3466   -7.2014 S   0  0  0  0  0  0  0  0  0  0  0  0
    5.5341   13.2000   -8.0880 O   0  0  0  0  0  0  0  0  0  0  0  0
    4.6012   15.2965   -7.1695 O   0  0  0  0  0  0  0  0  0  0  0  0
    7.0415   14.9411   -7.2021 O   0  5  0  0  0  0  0  0  0  0  0  0
    6.7247   13.4433   -4.7718 C   0  0  0  0  0  0  0  0  0  0  0  0
    6.6065   12.8076   -3.5393 C   0  0  0  0  0  0  0  0  0  0  0  0
    7.7136   12.6731   -2.7921 F   0  0  0  0  0  0  0  0  0  0  0  0
    5.4822   12.4906   -0.5533 C   0  0  0  0  0  0  0  0  0  0  0  0
    5.7146   13.8541   -0.4943 C   0  0  0  0  0  0  0  0  0  0  0  0
    5.9124   14.2077    0.8443 C   0  0  0  0  0  0  0  0  0  0  0  0
    5.7359   13.0779    1.6268 C   0  0  0  0  0  0  0  0  0  0  0  0
    5.4796   12.0309    0.7558 N   0  0  0  0  0  0  0  0  0  0  0  0
    5.8003   12.9632    3.0636 C   0  0  0  0  0  0  0  0  0  0  0  0
    6.0728   14.2176    3.8530 C   0  0  0  0  0  0  0  0  0  0  0  0
    7.2910   14.4297    4.5173 C   0  0  0  0  0  0  0  0  0  0  0  0
    8.2361   13.4763    4.5167 F   0  0  0  0  0  0  0  0  0  0  0  0
    7.5456   15.6089    5.2123 C   0  0  0  0  0  0  0  0  0  0  0  0
    6.5775   16.6151    5.2220 C   0  0  0  0  0  0  0  0  0  0  0  0
    6.9363   18.1543    6.0953 S   0  0  0  0  0  0  0  0  0  0  0  0
    6.8553   17.7287    7.4886 O   0  0  0  0  0  0  0  0  0  0  0  0
    8.2728   18.4839    5.6097 O   0  0  0  0  0  0  0  0  0  0  0  0
    5.8754   19.0537    5.6515 O   0  5  0  0  0  0  0  0  0  0  0  0
    5.3651   16.4492    4.5551 C   0  0  0  0  0  0  0  0  0  0  0  0
    5.1197   15.2497    3.8933 C   0  0  0  0  0  0  0  0  0  0  0  0
    3.9412   15.1068    3.2661 F   0  0  0  0  0  0  0  0  0  0  0  0
    5.6039   11.8118    3.7541 C   0  0  0  0  0  0  0  0  0  0  0  0
    5.2966   10.5411    3.2739 N   0  0  0  0  0  0  0  0  0  0  0  0
    5.2140    9.7662    4.3301 C   0  0  0  0  0  0  0  0  0  0  0  0
    4.8783    8.2958    4.4076 C   0  0  0  0  0  0  0  0  0  0  0  0
    4.8271    7.6034    5.7277 C   0  0  0  0  0  0  0  0  0  0  0  0
    3.8425    7.9163    6.6777 C   0  0  0  0  0  0  0  0  0  0  0  0
    2.9227    8.8546    6.4057 F   0  0  0  0  0  0  0  0  0  0  0  0
    3.8084    7.3013    7.9266 C   0  0  0  0  0  0  0  0  0  0  0  0
    4.7626    6.3287    8.2296 C   0  0  0  0  0  0  0  0  0  0  0  0
    4.6832    5.5061    9.8360 S   0  0  0  0  0  0  0  0  0  0  0  0
    5.1058    6.5735   10.7353 O   0  0  0  0  0  0  0  0  0  0  0  0
    3.2767    5.1243    9.9141 O   0  0  0  0  0  0  0  0  0  0  0  0
    5.6197    4.3954    9.6914 O   0  5  0  0  0  0  0  0  0  0  0  0
    5.7451    5.9775    7.3056 C   0  0  0  0  0  0  0  0  0  0  0  0
    5.7768    6.6289    6.0758 C   0  0  0  0  0  0  0  0  0  0  0  0
    6.7413    6.2885    5.2067 F   0  0  0  0  0  0  0  0  0  0  0  0
    4.6536    7.6076    3.2681 C   0  0  0  0  0  0  0  0  0  0  0  0
    4.3435    6.1811    3.1808 C   0  0  0  0  0  0  0  0  0  0  0  0
    4.2986    5.8139    1.8878 C   0  0  0  0  0  0  0  0  0  0  0  0
    4.5271    6.9904    1.0512 C   0  0  0  0  0  0  0  0  0  0  0  0
    4.6892    8.0154    1.9539 N   0  0  0  0  0  0  0  0  0  0  0  0
    5.4935   10.4555    5.5990 C   0  0  0  0  0  0  0  0  0  0  0  0
    5.6833   11.7043    5.1955 C   0  0  0  0  0  0  0  0  0  0  0  0
    4.8483    9.4986   -2.8403 C   0  0  0  0  0  0  0  0  0  0  0  0
    4.6061    8.2415   -2.4977 C   0  0  0  0  0  0  0  0  0  0  0  0
    5.5324    5.1861   -1.7545 C   0  0  0  0  0  0  0  0  0  0  0  0
    5.3768    4.1230   -2.6576 C   0  0  0  0  0  0  0  0  0  0  0  0
   -1.6628    1.3163    0.7866 N   0  0  0  0  0  0  0  0  0  0  0  0
   -2.4486    2.4342    0.8684 C   0  0  0  0  0  0  0  0  0  0  0  0
   -2.1058    3.5317    1.2810 O   0  0  0  0  0  0  0  0  0  0  0  0
   -3.7775    2.1662    0.2306 C   0  0  0  0  0  0  0  0  0  0  0  0
   -3.7633    0.6627    0.0206 C   0  0  1  0  0  0  0  0  0  0  0  0
   -4.2307    0.1732   -1.2816 N   0  0  0  0  0  0  0  0  0  0  0  0
   -3.5946    0.6036   -2.4391 C   0  0  0  0  0  0  0  0  0  0  0  0
   -2.6729    1.4070   -2.4846 O   0  0  0  0  0  0  0  0  0  0  0  0
   -4.1937   -0.0438   -3.6351 C   0  0  0  0  0  0  0  0  0  0  0  0
   -3.8082    0.2504   -4.8857 C   0  0  0  0  0  0  0  0  0  0  0  0
   -4.4610   -0.2460   -6.1044 C   0  0  0  0  0  0  0  0  0  0  0  0
   -3.7580   -1.0186   -7.0336 C   0  0  0  0  0  0  0  0  0  0  0  0
   -4.3977   -1.4801   -8.1888 C   0  0  0  0  0  0  0  0  0  0  0  0
   -5.7371   -1.1672   -8.4236 C   0  0  0  0  0  0  0  0  0  0  0  0
   -6.4376   -0.3828   -7.5114 C   0  0  0  0  0  0  0  0  0  0  0  0
   -5.7993    0.0831   -6.3625 C   0  0  0  0  0  0  0  0  0  0  0  0
   -5.4218   -1.1430   -3.1480 S   0  0  0  0  0  0  0  0  0  0  0  0
   -5.2117   -0.7812   -1.4432 C   0  0  0  0  0  0  0  0  0  0  0  0
   -6.1498   -1.5104   -0.2723 S   0  0  0  0  0  0  0  0  0  0  0  0
   -2.3132    0.2719    0.1947 C   0  0  0  0  0  0  0  0  0  0  0  0
   -1.8404   -0.8003   -0.1538 O   0  0  0  0  0  0  0  0  0  0  0  0
   -0.3040    3.0497   -0.5558 H   0  0  0  0  0  0  0  0  0  0  0  0
    0.1268    1.5136   -1.2685 H   0  0  0  0  0  0  0  0  0  0  0  0
    1.3004    2.3979   -0.3231 H   0  0  0  0  0  0  0  0  0  0  0  0
    0.1095    2.0563    1.6500 H   0  0  0  0  0  0  0  0  0  0  0  0
    1.0729   -2.5635    0.2220 H   0  0  0  0  0  0  0  0  0  0  0  0
    2.0841   -1.7414    1.4235 H   0  0  0  0  0  0  0  0  0  0  0  0
    2.6362   -2.2458   -1.4495 H   0  0  0  0  0  0  0  0  0  0  0  0
    3.6019   -2.6168    0.0396 H   0  0  0  0  0  0  0  0  0  0  0  0
    4.0151    0.9891   -1.6012 H   0  0  0  0  0  0  0  0  0  0  0  0
    2.6398    0.7523   -0.4208 H   0  0  0  0  0  0  0  0  0  0  0  0
    2.1381    1.2159   -2.8593 H   0  0  0  0  0  0  0  0  0  0  0  0
    1.3029   -0.0901   -1.8851 H   0  0  0  0  0  0  0  0  0  0  0  0
    3.5904   -1.6225   -4.7141 H   0  0  0  0  0  0  0  0  0  0  0  0
    4.2785   -1.0836   -3.1286 H   0  0  0  0  0  0  0  0  0  0  0  0
    3.6659    0.7133   -5.3999 H   0  0  0  0  0  0  0  0  0  0  0  0
    5.2665    0.0391   -4.9765 H   0  0  0  0  0  0  0  0  0  0  0  0
    2.0615    3.7159   -2.3618 H   0  0  0  0  0  0  0  0  0  0  0  0
    2.3452    5.5124   -0.7560 H   0  0  0  0  0  0  0  0  0  0  0  0
    3.5205   13.1885   -5.7520 H   0  0  0  0  0  0  0  0  0  0  0  0
    7.6346   13.8169   -5.0841 H   0  0  0  0  0  0  0  0  0  0  0  0
    5.7379   14.4989   -1.2998 H   0  0  0  0  0  0  0  0  0  0  0  0
    6.1496   15.1505    1.1906 H   0  0  0  0  0  0  0  0  0  0  0  0
    5.3192   11.0979    1.0262 H   0  0  0  0  0  0  0  0  0  0  0  0
    8.4383   15.7377    5.7138 H   0  0  0  0  0  0  0  0  0  0  0  0
    4.6608   17.2035    4.5520 H   0  0  0  0  0  0  0  0  0  0  0  0
    3.0879    7.5609    8.6183 H   0  0  0  0  0  0  0  0  0  0  0  0
    6.4380    5.2462    7.5295 H   0  0  0  0  0  0  0  0  0  0  0  0
    4.1841    5.5545    3.9852 H   0  0  0  0  0  0  0  0  0  0  0  0
    4.1300    4.8562    1.5422 H   0  0  0  0  0  0  0  0  0  0  0  0
    4.8187    8.9536    1.6851 H   0  0  0  0  0  0  0  0  0  0  0  0
    5.5319   10.0680    6.5547 H   0  0  0  0  0  0  0  0  0  0  0  0
    5.8646   12.4988    5.8287 H   0  0  0  0  0  0  0  0  0  0  0  0
    4.8838    9.8407   -3.8133 H   0  0  0  0  0  0  0  0  0  0  0  0
    4.3860    7.4337   -3.1011 H   0  0  0  0  0  0  0  0  0  0  0  0
    6.4735    5.5725   -1.5811 H   0  0  0  0  0  0  0  0  0  0  0  0
    6.1982    3.7276   -3.1413 H   0  0  0  0  0  0  0  0  0  0  0  0
   -3.8670    2.6832   -0.7019 H   0  0  0  0  0  0  0  0  0  0  0  0
   -4.6031    2.4997    0.8240 H   0  0  0  0  0  0  0  0  0  0  0  0
   -4.4531    0.2275    0.7132 H   0  0  0  0  0  0  0  0  0  0  0  0
   -2.9922    0.8718   -5.0002 H   0  0  0  0  0  0  0  0  0  0  0  0
   -2.7659   -1.2487   -6.8670 H   0  0  0  0  0  0  0  0  0  0  0  0
   -3.8770   -2.0543   -8.8701 H   0  0  0  0  0  0  0  0  0  0  0  0
   -6.2080   -1.5169   -9.2727 H   0  0  0  0  0  0  0  0  0  0  0  0
   -7.4271   -0.1467   -7.6851 H   0  0  0  0  0  0  0  0  0  0  0  0
   -6.3172    0.6762   -5.6954 H   0  0  0  0  0  0  0  0  0  0  0  0
  1104  1  0  0  0  0
  1105  1  0  0  0  0
  1106  1  0  0  0  0
  2 83  1  0  0  0  0
  2  3  1  0  0  0  0
  2  1  1  0  0  0  0
  2107  1  1  0  0  0
  3  4  2  0  0  0  0
  3  5  1  0  0  0  0
  5  6  1  0  0  0  0
  6  7  1  0  0  0  0
  6108  1  0  0  0  0
  6109  1  0  0  0  0
  7  8  1  0  0  0  0
  7110  1  0  0  0  0
  7111  1  0  0  0  0
  8  9  1  0  0  0  0
  9 10  1  0  0  0  0
  9112  1  0  0  0  0
  9113  1  0  0  0  0
 10 11  1  0  0  0  0
 10114  1  0  0  0  0
 10115  1  0  0  0  0
 11 12  1  0  0  0  0
 12 13  1  0  0  0  0
 12116  1  0  0  0  0
 12117  1  0  0  0  0
 13 14  1  0  0  0  0
 13118  1  0  0  0  0
 13119  1  0  0  0  0
 14 15  1  0  0  0  0
 15 16  2  0  0  0  0
 15 17  1  0  0  0  0
 17 18  1  0  0  0  0
 17 82  2  0  0  0  0
 18 19  2  0  0  0  0
 18120  1  0  0  0  0
 19 20  1  0  0  0  0
 19121  1  0  0  0  0
 20 21  1  0  0  0  0
 20 81  2  0  0  0  0
 21 22  1  0  0  0  0
 21 75  2  0  0  0  0
 22 23  2  0  0  0  0
 22 80  1  0  0  0  0
 23 24  1  0  0  0  0
 24 25  2  0  0  0  0
 24 79  1  0  0  0  0
 25 26  1  0  0  0  0
 25 38  1  0  0  0  0
 26 27  1  0  0  0  0
 26 36  2  0  0  0  0
 27 28  1  0  0  0  0
 27 29  2  0  0  0  0
 29 30  1  0  0  0  0
 29122  1  0  0  0  0
 30 31  1  0  0  0  0
 30 35  2  0  0  0  0
 31 32  2  0  0  0  0
 31 33  2  0  0  0  0
 31 34  1  0  0  0  0
 35 36  1  0  0  0  0
 35123  1  0  0  0  0
 36 37  1  0  0  0  0
 38 39  2  0  0  0  0
 38 42  1  0  0  0  0
 39 40  1  0  0  0  0
 39124  1  0  0  0  0
 40 41  2  0  0  0  0
 40125  1  0  0  0  0
 41 42  1  0  0  0  0
 41 43  1  0  0  0  0
 42126  1  0  0  0  0
 43 44  1  0  0  0  0
 43 56  2  0  0  0  0
 44 45  1  0  0  0  0
 44 54  2  0  0  0  0
 45 46  1  0  0  0  0
 45 47  2  0  0  0  0
 47 48  1  0  0  0  0
 47127  1  0  0  0  0
 48 49  1  0  0  0  0
 48 53  2  0  0  0  0
 49 50  2  0  0  0  0
 49 51  2  0  0  0  0
 49 52  1  0  0  0  0
 53 54  1  0  0  0  0
 53128  1  0  0  0  0
 54 55  1  0  0  0  0
 56 57  1  0  0  0  0
 56 78  1  0  0  0  0
 57 58  2  0  0  0  0
 58 59  1  0  0  0  0
 58 77  1  0  0  0  0
 59 60  1  0  0  0  0
 59 72  2  0  0  0  0
 60 61  1  0  0  0  0
 60 70  2  0  0  0  0
 61 62  1  0  0  0  0
 61 63  2  0  0  0  0
 63 64  1  0  0  0  0
 63129  1  0  0  0  0
 64 65  1  0  0  0  0
 64 69  2  0  0  0  0
 65 66  2  0  0  0  0
 65 67  2  0  0  0  0
 65 68  1  0  0  0  0
 69 70  1  0  0  0  0
 69130  1  0  0  0  0
 70 71  1  0  0  0  0
 72 73  1  0  0  0  0
 72 76  1  0  0  0  0
 73 74  2  0  0  0  0
 73131  1  0  0  0  0
 74 75  1  0  0  0  0
 74132  1  0  0  0  0
 75 76  1  0  0  0  0
 76133  1  0  0  0  0
 77 78  2  0  0  0  0
 77134  1  0  0  0  0
 78135  1  0  0  0  0
 79 80  2  0  0  0  0
 79136  1  0  0  0  0
 80137  1  0  0  0  0
 81 82  1  0  0  0  0
 81138  1  0  0  0  0
 82139  1  0  0  0  0
 83 84  1  0  0  0  0
 83102  1  0  0  0  0
 84 85  2  0  0  0  0
 84 86  1  0  0  0  0
 86 87  1  0  0  0  0
 86140  1  0  0  0  0
 86141  1  0  0  0  0
 87102  1  0  0  0  0
 87 88  1  0  0  0  0
 87142  1  1  0  0  0
 88 89  1  0  0  0  0
 88100  1  0  0  0  0
 89 90  2  0  0  0  0
 89 91  1  0  0  0  0
 91 92  2  0  0  0  0
 91 99  1  0  0  0  0
 92 93  1  0  0  0  0
 92143  1  0  0  0  0
 93 94  1  0  0  0  0
 93 98  2  0  0  0  0
 94 95  2  0  0  0  0
 94144  1  0  0  0  0
 95 96  1  0  0  0  0
 95145  1  0  0  0  0
 96 97  2  0  0  0  0
 96146  1  0  0  0  0
 97 98  1  0  0  0  0
 97147  1  0  0  0  0
 98148  1  0  0  0  0
 99100  1  0  0  0  0
100101  2  0  0  0  0
102103  2  0  0  0  0
M  CHG  3  34  -1  52  -1  68  -1
M  END
$$$$
