4_5_804
 OpenBabel04152301373D

153164  0  0  1  0  0  0  0  0999 V2000
    1.3651    0.1447    2.7866 C   0  0  0  0  0  0  0  0  0  0  0  0
    0.7845   -0.6731    1.6135 C   0  0  2  0  0  0  0  0  0  0  0  0
    1.4934   -0.4457    0.2616 C   0  0  0  0  0  0  0  0  0  0  0  0
    2.2790    0.6773   -0.0172 C   0  0  0  0  0  0  0  0  0  0  0  0
    2.9045    0.8863   -1.2067 N   0  0  0  0  0  0  0  0  0  0  0  0
    2.7558   -0.0953   -2.1143 C   0  0  0  0  0  0  0  0  0  0  0  0
    2.0136   -1.2305   -1.8511 C   0  0  0  0  0  0  0  0  0  0  0  0
    1.3677   -1.4270   -0.6778 N   0  0  0  0  0  0  0  0  0  0  0  0
   -0.7359   -0.7011    1.5507 N   0  3  2  0  0  0  0  0  0  0  0  0
   -1.3367    0.6637    1.4593 C   0  0  1  0  0  0  0  0  0  0  0  0
   -0.7796    1.4304    0.2502 C   0  0  0  0  0  0  0  0  0  0  0  0
    0.0828    2.2926    0.3802 O   0  0  0  0  0  0  0  0  0  0  0  0
   -1.3387    1.0592   -0.9243 O   0  0  0  0  0  0  0  0  0  0  0  0
   -0.8279    1.5047   -2.1999 C   0  0  0  0  0  0  0  0  0  0  0  0
   -0.2654    2.9187   -2.4086 C   0  0  0  0  0  0  0  0  0  0  0  0
   -1.2165    3.9733   -2.3630 O   0  0  0  0  0  0  0  0  0  0  0  0
   -1.5368    4.4313   -1.0599 C   0  0  0  0  0  0  0  0  0  0  0  0
   -2.7508    3.7262   -0.4591 C   0  0  0  0  0  0  0  0  0  0  0  0
   -3.7712    3.1884   -1.2797 O   0  0  0  0  0  0  0  0  0  0  0  0
   -4.1364    3.9141   -2.4380 C   0  0  0  0  0  0  0  0  0  0  0  0
   -4.5639    5.3895   -2.3008 C   0  0  0  0  0  0  0  0  0  0  0  0
   -3.9971    6.1316   -1.2047 O   0  0  0  0  0  0  0  0  0  0  0  0
   -4.7248    6.1331   -0.0545 C   0  0  0  0  0  0  0  0  0  0  0  0
   -5.8333    5.6583    0.0972 O   0  0  0  0  0  0  0  0  0  0  0  0
   -3.8696    6.5872    1.0817 C   0  0  0  0  0  0  0  0  0  0  0  0
   -3.8031    5.7632    2.2197 C   0  0  0  0  0  0  0  0  0  0  0  0
   -3.0741    6.1534    3.3428 C   0  0  0  0  0  0  0  0  0  0  0  0
   -2.4582    7.4088    3.3655 C   0  0  0  0  0  0  0  0  0  0  0  0
   -2.1177    8.0047    4.6866 C   0  0  0  0  0  0  0  0  0  0  0  0
   -3.1385    8.9208    5.3189 C   0  0  0  0  0  0  0  0  0  0  0  0
   -3.0930    9.5656    6.4557 N   0  0  0  0  0  0  0  0  0  0  0  0
   -4.2907   10.2686    6.5389 C   0  0  0  0  0  0  0  0  0  0  0  0
   -4.7486   11.0558    7.5409 C   0  0  0  0  0  0  0  0  0  0  0  0
   -6.0879   11.7151    7.3490 C   0  0  0  0  0  0  0  0  0  0  0  0
   -7.2862   10.9825    7.3593 C   0  0  0  0  0  0  0  0  0  0  0  0
   -7.2621    9.6475    7.5008 F   0  0  0  0  0  0  0  0  0  0  0  0
   -8.5186   11.6010    7.1739 C   0  0  0  0  0  0  0  0  0  0  0  0
   -8.5639   12.9860    7.0052 C   0  0  0  0  0  0  0  0  0  0  0  0
  -10.1713   13.7747    6.7765 S   0  0  0  0  0  0  0  0  0  0  0  0
  -10.5223   13.3361    5.4292 O   0  0  0  0  0  0  0  0  0  0  0  0
  -10.9598   13.1927    7.8578 O   0  0  0  0  0  0  0  0  0  0  0  0
   -9.8758   15.1973    6.9153 O   0  5  0  0  0  0  0  0  0  0  0  0
   -7.3977   13.7492    7.0168 C   0  0  0  0  0  0  0  0  0  0  0  0
   -6.1739   13.1056    7.1719 C   0  0  0  0  0  0  0  0  0  0  0  0
   -5.0599   13.8542    7.1474 F   0  0  0  0  0  0  0  0  0  0  0  0
   -4.0226   11.3185    8.7550 C   0  0  0  0  0  0  0  0  0  0  0  0
   -4.4064   12.0929    9.8355 C   0  0  0  0  0  0  0  0  0  0  0  0
   -3.3548   12.1080   10.7578 C   0  0  0  0  0  0  0  0  0  0  0  0
   -2.3424   11.2903   10.2818 C   0  0  0  0  0  0  0  0  0  0  0  0
   -2.7621   10.8201    9.0481 N   0  0  0  0  0  0  0  0  0  0  0  0
   -1.0854   10.9592   10.9062 C   0  0  0  0  0  0  0  0  0  0  0  0
   -0.8047   11.5312   12.2723 C   0  0  0  0  0  0  0  0  0  0  0  0
    0.1906   12.4985   12.4848 C   0  0  0  0  0  0  0  0  0  0  0  0
    0.9457   12.9274   11.4610 F   0  0  0  0  0  0  0  0  0  0  0  0
    0.4548   13.0052   13.7542 C   0  0  0  0  0  0  0  0  0  0  0  0
   -0.3136   12.5668   14.8342 C   0  0  0  0  0  0  0  0  0  0  0  0
    0.0426   13.2265   16.4766 S   0  0  0  0  0  0  0  0  0  0  0  0
    1.2901   12.5435   16.8028 O   0  0  0  0  0  0  0  0  0  0  0  0
    0.1521   14.6594   16.2215 O   0  0  0  0  0  0  0  0  0  0  0  0
   -1.1182   12.8232   17.2647 O   0  5  0  0  0  0  0  0  0  0  0  0
   -1.3402   11.6417   14.6544 C   0  0  0  0  0  0  0  0  0  0  0  0
   -1.5638   11.1231   13.3824 C   0  0  0  0  0  0  0  0  0  0  0  0
   -2.5418   10.2149   13.2369 F   0  0  0  0  0  0  0  0  0  0  0  0
   -0.1489   10.1390   10.3645 C   0  0  0  0  0  0  0  0  0  0  0  0
   -0.1727    9.4544    9.1512 N   0  0  0  0  0  0  0  0  0  0  0  0
    0.9680    8.8088    9.0784 C   0  0  0  0  0  0  0  0  0  0  0  0
    1.4692    7.8759    8.0012 C   0  0  0  0  0  0  0  0  0  0  0  0
    2.8113    7.2395    8.1222 C   0  0  0  0  0  0  0  0  0  0  0  0
    3.0790    6.2831    9.1136 C   0  0  0  0  0  0  0  0  0  0  0  0
    2.1157    5.9233    9.9756 F   0  0  0  0  0  0  0  0  0  0  0  0
    4.3398    5.7107    9.2559 C   0  0  0  0  0  0  0  0  0  0  0  0
    5.3547    6.0788    8.3711 C   0  0  0  0  0  0  0  0  0  0  0  0
    6.9711    5.2882    8.5302 S   0  0  0  0  0  0  0  0  0  0  0  0
    7.4776    5.8952    9.7554 O   0  0  0  0  0  0  0  0  0  0  0  0
    6.6114    3.8762    8.6176 O   0  0  0  0  0  0  0  0  0  0  0  0
    7.6574    5.6771    7.3018 O   0  5  0  0  0  0  0  0  0  0  0  0
    5.1226    7.0129    7.3629 C   0  0  0  0  0  0  0  0  0  0  0  0
    3.8615    7.5927    7.2597 C   0  0  0  0  0  0  0  0  0  0  0  0
    3.6603    8.5006    6.2918 F   0  0  0  0  0  0  0  0  0  0  0  0
    0.6953    7.6282    6.9236 C   0  0  0  0  0  0  0  0  0  0  0  0
    1.0303    6.7357    5.8133 C   0  0  0  0  0  0  0  0  0  0  0  0
    0.0522    6.7859    4.8898 C   0  0  0  0  0  0  0  0  0  0  0  0
   -0.9906    7.6974    5.3547 C   0  0  0  0  0  0  0  0  0  0  0  0
   -0.5386    8.1281    6.5796 N   0  0  0  0  0  0  0  0  0  0  0  0
    1.8578    9.0381   10.2265 C   0  0  0  0  0  0  0  0  0  0  0  0
    1.1115    9.8149   10.9990 C   0  0  0  0  0  0  0  0  0  0  0  0
   -5.0255   10.0022    5.3233 C   0  0  0  0  0  0  0  0  0  0  0  0
   -4.3813    9.1367    4.5578 C   0  0  0  0  0  0  0  0  0  0  0  0
   -2.4509    8.1955    2.1958 C   0  0  0  0  0  0  0  0  0  0  0  0
   -3.1488    7.7816    1.0496 C   0  0  0  0  0  0  0  0  0  0  0  0
   -2.8769    0.6859    1.4669 C   0  0  0  0  0  0  0  0  0  0  0  0
   -3.4334   -0.0475    2.6747 C   0  0  0  0  0  0  0  0  0  0  0  0
   -2.8912   -1.4708    2.7125 C   0  0  1  0  0  0  0  0  0  0  0  0
   -3.5907   -2.3366    1.6473 C   0  0  0  0  0  0  0  0  0  0  0  0
   -2.8286   -3.5223    1.0618 C   0  0  0  0  0  0  0  0  0  0  0  0
   -1.3483   -3.6528    1.3958 C   0  0  0  0  0  0  0  0  0  0  0  0
   -0.9453   -2.9633    2.6889 C   0  0  0  0  0  0  0  0  0  0  0  0
   -1.3403   -1.4759    2.6743 C   0  0  1  0  0  0  0  0  0  0  0  0
    0.8169   -0.0735    3.6792 H   0  0  0  0  0  0  0  0  0  0  0  0
    1.2872    1.1889    2.5664 H   0  0  0  0  0  0  0  0  0  0  0  0
    2.3937   -0.1144    2.9274 H   0  0  0  0  0  0  0  0  0  0  0  0
    1.0355   -1.6849    1.8548 H   0  0  0  0  0  0  0  0  0  0  0  0
    2.3905    1.3884    0.7223 H   0  0  0  0  0  0  0  0  0  0  0  0
    3.2102    0.0026   -3.0357 H   0  0  0  0  0  0  0  0  0  0  0  0
    1.9489   -1.9589   -2.5793 H   0  0  0  0  0  0  0  0  0  0  0  0
   -0.9628   -1.1892    0.6843 H   0  0  0  0  0  0  0  0  0  0  0  0
   -1.0433    1.1630    2.3590 H   0  0  0  0  0  0  0  0  0  0  0  0
   -1.6323    1.3976   -2.8973 H   0  0  0  0  0  0  0  0  0  0  0  0
    0.0468    0.8988   -2.3128 H   0  0  0  0  0  0  0  0  0  0  0  0
    0.2093    2.9454   -3.3671 H   0  0  0  0  0  0  0  0  0  0  0  0
    0.4008    3.0913   -1.5893 H   0  0  0  0  0  0  0  0  0  0  0  0
   -1.7417    5.4804   -1.1084 H   0  0  0  0  0  0  0  0  0  0  0  0
   -0.6986    4.2156   -0.4307 H   0  0  0  0  0  0  0  0  0  0  0  0
   -3.2244    4.4363    0.1862 H   0  0  0  0  0  0  0  0  0  0  0  0
   -2.3176    2.8498   -0.0241 H   0  0  0  0  0  0  0  0  0  0  0  0
   -4.9551    3.3924   -2.8879 H   0  0  0  0  0  0  0  0  0  0  0  0
   -3.2285    3.9648   -3.0020 H   0  0  0  0  0  0  0  0  0  0  0  0
   -5.6278    5.4089   -2.1887 H   0  0  0  0  0  0  0  0  0  0  0  0
   -4.1965    5.8701   -3.1833 H   0  0  0  0  0  0  0  0  0  0  0  0
   -4.2999    4.8587    2.2236 H   0  0  0  0  0  0  0  0  0  0  0  0
   -2.9896    5.5193    4.1526 H   0  0  0  0  0  0  0  0  0  0  0  0
   -9.3871   11.0437    7.1613 H   0  0  0  0  0  0  0  0  0  0  0  0
   -7.4412   14.7749    6.9121 H   0  0  0  0  0  0  0  0  0  0  0  0
   -5.3121   12.5759    9.9425 H   0  0  0  0  0  0  0  0  0  0  0  0
   -3.3361   12.6383   11.6429 H   0  0  0  0  0  0  0  0  0  0  0  0
   -2.2422   10.2206    8.4654 H   0  0  0  0  0  0  0  0  0  0  0  0
    1.2087   13.6957   13.8950 H   0  0  0  0  0  0  0  0  0  0  0  0
   -1.9251   11.3460   15.4515 H   0  0  0  0  0  0  0  0  0  0  0  0
    4.5216    5.0242   10.0047 H   0  0  0  0  0  0  0  0  0  0  0  0
    5.8737    7.2704    6.7036 H   0  0  0  0  0  0  0  0  0  0  0  0
    1.8831    6.1581    5.7484 H   0  0  0  0  0  0  0  0  0  0  0  0
    0.0408    6.2654    3.9987 H   0  0  0  0  0  0  0  0  0  0  0  0
   -1.0513    8.7384    7.1574 H   0  0  0  0  0  0  0  0  0  0  0  0
    2.8142    8.6860   10.3886 H   0  0  0  0  0  0  0  0  0  0  0  0
    1.3933   10.1468   11.9347 H   0  0  0  0  0  0  0  0  0  0  0  0
   -5.9333   10.4307    5.0839 H   0  0  0  0  0  0  0  0  0  0  0  0
   -4.6737    8.7205    3.6599 H   0  0  0  0  0  0  0  0  0  0  0  0
   -1.9273    9.0847    2.1816 H   0  0  0  0  0  0  0  0  0  0  0  0
   -3.1288    8.3552    0.1919 H   0  0  0  0  0  0  0  0  0  0  0  0
   -3.2367    0.2142    0.5764 H   0  0  0  0  0  0  0  0  0  0  0  0
   -3.1997    1.7050    1.5123 H   0  0  0  0  0  0  0  0  0  0  0  0
   -4.5011   -0.0762    2.6114 H   0  0  0  0  0  0  0  0  0  0  0  0
   -3.1375    0.4659    3.5656 H   0  0  0  0  0  0  0  0  0  0  0  0
   -3.1304   -1.9357    3.6461 H   0  0  0  0  0  0  0  0  0  0  0  0
   -3.8463   -1.6913    0.8329 H   0  0  0  0  0  0  0  0  0  0  0  0
   -4.4119   -2.7827    2.1683 H   0  0  0  0  0  0  0  0  0  0  0  0
   -2.9107   -3.4594   -0.0032 H   0  0  0  0  0  0  0  0  0  0  0  0
   -3.2819   -4.3811    1.5111 H   0  0  0  0  0  0  0  0  0  0  0  0
   -0.7832   -3.2236    0.5949 H   0  0  0  0  0  0  0  0  0  0  0  0
   -1.1501   -4.6963    1.5256 H   0  0  0  0  0  0  0  0  0  0  0  0
    0.1149   -3.0415    2.8102 H   0  0  0  0  0  0  0  0  0  0  0  0
   -1.4545   -3.4407    3.4999 H   0  0  0  0  0  0  0  0  0  0  0  0
   -0.9427   -0.9537    3.5193 H   0  0  0  0  0  0  0  0  0  0  0  0
  1 99  1  0  0  0  0
  1100  1  0  0  0  0
  1101  1  0  0  0  0
  2  9  1  0  0  0  0
  2  3  1  0  0  0  0
  2  1  1  0  0  0  0
  2102  1  1  0  0  0
  3  4  1  0  0  0  0
  3  8  2  0  0  0  0
  4  5  2  0  0  0  0
  4103  1  0  0  0  0
  5  6  1  0  0  0  0
  6  7  2  0  0  0  0
  6104  1  0  0  0  0
  7  8  1  0  0  0  0
  7105  1  0  0  0  0
  9 10  1  0  0  0  0
  9 98  1  0  0  0  0
  9106  1  6  0  0  0
 10 11  1  0  0  0  0
 10 91  1  0  0  0  0
 10107  1  1  0  0  0
 11 12  2  0  0  0  0
 11 13  1  0  0  0  0
 13 14  1  0  0  0  0
 14 15  1  0  0  0  0
 14108  1  0  0  0  0
 14109  1  0  0  0  0
 15 16  1  0  0  0  0
 15110  1  0  0  0  0
 15111  1  0  0  0  0
 16 17  1  0  0  0  0
 17 18  1  0  0  0  0
 17112  1  0  0  0  0
 17113  1  0  0  0  0
 18 19  1  0  0  0  0
 18114  1  0  0  0  0
 18115  1  0  0  0  0
 19 20  1  0  0  0  0
 20 21  1  0  0  0  0
 20116  1  0  0  0  0
 20117  1  0  0  0  0
 21 22  1  0  0  0  0
 21118  1  0  0  0  0
 21119  1  0  0  0  0
 22 23  1  0  0  0  0
 23 24  2  0  0  0  0
 23 25  1  0  0  0  0
 25 26  1  0  0  0  0
 25 90  2  0  0  0  0
 26 27  2  0  0  0  0
 26120  1  0  0  0  0
 27 28  1  0  0  0  0
 27121  1  0  0  0  0
 28 29  1  0  0  0  0
 28 89  2  0  0  0  0
 29 30  1  0  0  0  0
 29 83  2  0  0  0  0
 30 31  2  0  0  0  0
 30 88  1  0  0  0  0
 31 32  1  0  0  0  0
 32 33  2  0  0  0  0
 32 87  1  0  0  0  0
 33 34  1  0  0  0  0
 33 46  1  0  0  0  0
 34 35  1  0  0  0  0
 34 44  2  0  0  0  0
 35 36  1  0  0  0  0
 35 37  2  0  0  0  0
 37 38  1  0  0  0  0
 37122  1  0  0  0  0
 38 39  1  0  0  0  0
 38 43  2  0  0  0  0
 39 40  2  0  0  0  0
 39 41  2  0  0  0  0
 39 42  1  0  0  0  0
 43 44  1  0  0  0  0
 43123  1  0  0  0  0
 44 45  1  0  0  0  0
 46 47  2  0  0  0  0
 46 50  1  0  0  0  0
 47 48  1  0  0  0  0
 47124  1  0  0  0  0
 48 49  2  0  0  0  0
 48125  1  0  0  0  0
 49 50  1  0  0  0  0
 49 51  1  0  0  0  0
 50126  1  0  0  0  0
 51 52  1  0  0  0  0
 51 64  2  0  0  0  0
 52 53  1  0  0  0  0
 52 62  2  0  0  0  0
 53 54  1  0  0  0  0
 53 55  2  0  0  0  0
 55 56  1  0  0  0  0
 55127  1  0  0  0  0
 56 57  1  0  0  0  0
 56 61  2  0  0  0  0
 57 58  2  0  0  0  0
 57 59  2  0  0  0  0
 57 60  1  0  0  0  0
 61 62  1  0  0  0  0
 61128  1  0  0  0  0
 62 63  1  0  0  0  0
 64 65  1  0  0  0  0
 64 86  1  0  0  0  0
 65 66  2  0  0  0  0
 66 67  1  0  0  0  0
 66 85  1  0  0  0  0
 67 68  1  0  0  0  0
 67 80  2  0  0  0  0
 68 69  1  0  0  0  0
 68 78  2  0  0  0  0
 69 70  1  0  0  0  0
 69 71  2  0  0  0  0
 71 72  1  0  0  0  0
 71129  1  0  0  0  0
 72 73  1  0  0  0  0
 72 77  2  0  0  0  0
 73 74  2  0  0  0  0
 73 75  2  0  0  0  0
 73 76  1  0  0  0  0
 77 78  1  0  0  0  0
 77130  1  0  0  0  0
 78 79  1  0  0  0  0
 80 81  1  0  0  0  0
 80 84  1  0  0  0  0
 81 82  2  0  0  0  0
 81131  1  0  0  0  0
 82 83  1  0  0  0  0
 82132  1  0  0  0  0
 83 84  1  0  0  0  0
 84133  1  0  0  0  0
 85 86  2  0  0  0  0
 85134  1  0  0  0  0
 86135  1  0  0  0  0
 87 88  2  0  0  0  0
 87136  1  0  0  0  0
 88137  1  0  0  0  0
 89 90  1  0  0  0  0
 89138  1  0  0  0  0
 90139  1  0  0  0  0
 91 92  1  0  0  0  0
 91140  1  0  0  0  0
 91141  1  0  0  0  0
 92 93  1  0  0  0  0
 92142  1  0  0  0  0
 92143  1  0  0  0  0
 93 94  1  0  0  0  0
 93 98  1  0  0  0  0
 93144  1  1  0  0  0
 94 95  1  0  0  0  0
 94145  1  0  0  0  0
 94146  1  0  0  0  0
 95 96  1  0  0  0  0
 95147  1  0  0  0  0
 95148  1  0  0  0  0
 96 97  1  0  0  0  0
 96149  1  0  0  0  0
 96150  1  0  0  0  0
 97 98  1  0  0  0  0
 97151  1  0  0  0  0
 97152  1  0  0  0  0
 98153  1  1  0  0  0
M  CHG  4   9   1  42  -1  60  -1  76  -1
M  END
$$$$
