4_5_8880
 OpenBabel04152301373D

145154  0  0  1  0  0  0  0  0999 V2000
    1.0384    0.0218    0.1247 C   0  0  0  0  0  0  0  0  0  0  0  0
    0.7713    1.4684   -0.2599 C   0  0  0  0  0  0  0  0  0  0  0  0
    1.0841    1.7337   -1.6346 O   0  0  0  0  0  0  0  0  0  0  0  0
    2.3869    1.7499   -1.9762 C   0  0  0  0  0  0  0  0  0  0  0  0
    3.3195    1.6600   -1.1791 O   0  0  0  0  0  0  0  0  0  0  0  0
    2.6349    1.9035   -3.3218 N   0  0  0  0  0  0  0  0  0  0  0  0
    1.8696    2.1368   -4.4431 C   0  0  0  0  0  0  0  0  0  0  0  0
    2.4648    2.4090   -5.4936 O   0  0  0  0  0  0  0  0  0  0  0  0
    0.3364    2.1479   -4.3992 C   0  0  0  0  0  0  0  0  0  0  0  0
   -0.2492    0.9045   -3.8678 N   0  3  1  0  0  0  0  0  0  0  0  0
   -1.7128    0.9285   -3.8711 C   0  0  0  0  0  0  0  0  0  0  0  0
   -2.1326    0.2741   -5.1706 C   0  0  0  0  0  0  0  0  0  0  0  0
   -1.0527   -0.7632   -5.4528 C   0  0  1  0  0  0  0  0  0  0  0  0
   -0.9175   -0.9229   -6.9630 C   0  0  0  0  0  0  0  0  0  0  0  0
   -1.8659   -1.3079   -7.6412 O   0  0  0  0  0  0  0  0  0  0  0  0
    0.2982   -0.6094   -7.4739 O   0  0  0  0  0  0  0  0  0  0  0  0
    0.4655   -0.7861   -8.8990 C   0  0  0  0  0  0  0  0  0  0  0  0
    1.5889   -1.7457   -9.3341 C   0  0  0  0  0  0  0  0  0  0  0  0
    1.6318   -3.0601   -8.7910 O   0  0  0  0  0  0  0  0  0  0  0  0
    1.6030   -3.2291   -7.3800 C   0  0  0  0  0  0  0  0  0  0  0  0
    2.3972   -2.2600   -6.4958 C   0  0  0  0  0  0  0  0  0  0  0  0
    3.1239   -1.2727   -7.1851 O   0  0  0  0  0  0  0  0  0  0  0  0
    4.5297   -1.2488   -7.0295 C   0  0  0  0  0  0  0  0  0  0  0  0
    5.3246   -2.5383   -7.3064 C   0  0  0  0  0  0  0  0  0  0  0  0
    4.7837   -3.7627   -6.7782 O   0  0  0  0  0  0  0  0  0  0  0  0
    4.9089   -3.9607   -5.4446 C   0  0  0  0  0  0  0  0  0  0  0  0
    5.4523   -3.2106   -4.6488 O   0  0  0  0  0  0  0  0  0  0  0  0
    4.0500   -5.1082   -5.0626 C   0  0  0  0  0  0  0  0  0  0  0  0
    3.0213   -4.9012   -4.1303 C   0  0  0  0  0  0  0  0  0  0  0  0
    2.2354   -5.9706   -3.6978 C   0  0  0  0  0  0  0  0  0  0  0  0
    2.5058   -7.2645   -4.1594 C   0  0  0  0  0  0  0  0  0  0  0  0
    1.9566   -8.4313   -3.4190 C   0  0  0  0  0  0  0  0  0  0  0  0
    2.8546   -9.1131   -2.4168 C   0  0  0  0  0  0  0  0  0  0  0  0
    2.6367  -10.1759   -1.6874 N   0  0  0  0  0  0  0  0  0  0  0  0
    3.8035  -10.3785   -0.9575 C   0  0  0  0  0  0  0  0  0  0  0  0
    4.0719  -11.3286   -0.0305 C   0  0  0  0  0  0  0  0  0  0  0  0
    5.4443  -11.3279    0.5884 C   0  0  0  0  0  0  0  0  0  0  0  0
    5.8643  -10.3177    1.4693 C   0  0  0  0  0  0  0  0  0  0  0  0
    5.0518   -9.2875    1.7546 F   0  0  0  0  0  0  0  0  0  0  0  0
    7.1391  -10.3221    2.0271 C   0  0  0  0  0  0  0  0  0  0  0  0
    8.0068  -11.3739    1.7283 C   0  0  0  0  0  0  0  0  0  0  0  0
    9.6541  -11.3690    2.4662 S   0  0  0  0  0  0  0  0  0  0  0  0
   10.2951  -10.2763    1.7410 O   0  0  0  0  0  0  0  0  0  0  0  0
    9.3635  -11.1115    3.8729 O   0  0  0  0  0  0  0  0  0  0  0  0
   10.1651  -12.7033    2.1683 O   0  5  0  0  0  0  0  0  0  0  0  0
    7.6148  -12.4092    0.8817 C   0  0  0  0  0  0  0  0  0  0  0  0
    6.3474  -12.3667    0.3090 C   0  0  0  0  0  0  0  0  0  0  0  0
    6.0019  -13.3557   -0.5302 F   0  0  0  0  0  0  0  0  0  0  0  0
    3.1383  -12.3489    0.3691 C   0  0  0  0  0  0  0  0  0  0  0  0
    3.3116  -13.3558    1.3025 C   0  0  0  0  0  0  0  0  0  0  0  0
    2.1564  -14.1444    1.3148 C   0  0  0  0  0  0  0  0  0  0  0  0
    1.2358  -13.5872    0.4418 C   0  0  0  0  0  0  0  0  0  0  0  0
    1.8572  -12.4957   -0.1427 N   0  0  0  0  0  0  0  0  0  0  0  0
   -0.1143  -14.0146    0.1671 C   0  0  0  0  0  0  0  0  0  0  0  0
   -0.6597  -15.1767    0.9578 C   0  0  0  0  0  0  0  0  0  0  0  0
   -0.9561  -16.4146    0.3655 C   0  0  0  0  0  0  0  0  0  0  0  0
   -0.7730  -16.5946   -0.9523 F   0  0  0  0  0  0  0  0  0  0  0  0
   -1.4892  -17.4669    1.1051 C   0  0  0  0  0  0  0  0  0  0  0  0
   -1.6962  -17.2979    2.4755 C   0  0  0  0  0  0  0  0  0  0  0  0
   -2.4000  -18.6645    3.4222 S   0  0  0  0  0  0  0  0  0  0  0  0
   -3.7900  -18.6433    2.9789 O   0  0  0  0  0  0  0  0  0  0  0  0
   -1.6064  -19.8019    2.9670 O   0  0  0  0  0  0  0  0  0  0  0  0
   -2.1777  -18.2680    4.8095 O   0  5  0  0  0  0  0  0  0  0  0  0
   -1.3669  -16.1008    3.1075 C   0  0  0  0  0  0  0  0  0  0  0  0
   -0.8699  -15.0506    2.3420 C   0  0  0  0  0  0  0  0  0  0  0  0
   -0.5863  -13.8970    2.9676 F   0  0  0  0  0  0  0  0  0  0  0  0
   -0.9470  -13.4149   -0.7220 C   0  0  0  0  0  0  0  0  0  0  0  0
   -0.7229  -12.2982   -1.5244 N   0  0  0  0  0  0  0  0  0  0  0  0
   -1.8294  -12.1166   -2.2073 C   0  0  0  0  0  0  0  0  0  0  0  0
   -2.1719  -11.0289   -3.1974 C   0  0  0  0  0  0  0  0  0  0  0  0
   -3.4999  -11.0148   -3.8733 C   0  0  0  0  0  0  0  0  0  0  0  0
   -4.6813  -10.7768   -3.1542 C   0  0  0  0  0  0  0  0  0  0  0  0
   -4.6277  -10.5526   -1.8322 F   0  0  0  0  0  0  0  0  0  0  0  0
   -5.9294  -10.8010   -3.7695 C   0  0  0  0  0  0  0  0  0  0  0  0
   -6.0029  -11.0388   -5.1429 C   0  0  0  0  0  0  0  0  0  0  0  0
   -7.6242  -11.0199   -5.9388 S   0  0  0  0  0  0  0  0  0  0  0  0
   -8.2173  -12.2509   -5.4296 O   0  0  0  0  0  0  0  0  0  0  0  0
   -8.1974   -9.7770   -5.4317 O   0  0  0  0  0  0  0  0  0  0  0  0
   -7.2997  -11.0174   -7.3622 O   0  5  0  0  0  0  0  0  0  0  0  0
   -4.8501  -11.2590   -5.8949 C   0  0  0  0  0  0  0  0  0  0  0  0
   -3.6163  -11.2606   -5.2508 C   0  0  0  0  0  0  0  0  0  0  0  0
   -2.5185  -11.4898   -5.9883 F   0  0  0  0  0  0  0  0  0  0  0  0
   -1.2607  -10.0721   -3.4704 C   0  0  0  0  0  0  0  0  0  0  0  0
   -1.4431   -8.9532   -4.3947 C   0  0  0  0  0  0  0  0  0  0  0  0
   -0.2968   -8.2534   -4.4776 C   0  0  0  0  0  0  0  0  0  0  0  0
    0.6908   -8.8561   -3.5851 C   0  0  0  0  0  0  0  0  0  0  0  0
    0.0226   -9.9072   -3.0049 N   0  0  0  0  0  0  0  0  0  0  0  0
   -2.8663  -13.1246   -1.9435 C   0  0  0  0  0  0  0  0  0  0  0  0
   -2.2972  -13.8589   -0.9981 C   0  0  0  0  0  0  0  0  0  0  0  0
    4.7376   -9.3498   -1.3566 C   0  0  0  0  0  0  0  0  0  0  0  0
    4.1839   -8.5106   -2.2171 C   0  0  0  0  0  0  0  0  0  0  0  0
    3.4884   -7.4543   -5.1501 C   0  0  0  0  0  0  0  0  0  0  0  0
    4.2593   -6.3772   -5.6046 C   0  0  0  0  0  0  0  0  0  0  0  0
    0.1458   -0.3049   -4.6074 C   0  0  2  0  0  0  0  0  0  0  0  0
    0.4984   -1.3489   -3.5283 C   0  0  0  0  0  0  0  0  0  0  0  0
    0.7904   -0.1249    1.1552 H   0  0  0  0  0  0  0  0  0  0  0  0
    2.0733   -0.2028   -0.0286 H   0  0  0  0  0  0  0  0  0  0  0  0
    0.4394   -0.6249   -0.4818 H   0  0  0  0  0  0  0  0  0  0  0  0
    1.3698    2.1047    0.3580 H   0  0  0  0  0  0  0  0  0  0  0  0
   -0.2727    1.6566   -0.1199 H   0  0  0  0  0  0  0  0  0  0  0  0
    3.5932    1.8282   -3.5345 H   0  0  0  0  0  0  0  0  0  0  0  0
   -0.0291    2.2954   -5.3940 H   0  0  0  0  0  0  0  0  0  0  0  0
    0.0479    2.9376   -3.7374 H   0  0  0  0  0  0  0  0  0  0  0  0
    0.1178    0.8623   -2.9170 H   0  0  0  0  0  0  0  0  0  0  0  0
   -2.0691    1.9366   -3.8293 H   0  0  0  0  0  0  0  0  0  0  0  0
   -2.1172    0.4162   -3.0232 H   0  0  0  0  0  0  0  0  0  0  0  0
   -2.1764    0.9962   -5.9590 H   0  0  0  0  0  0  0  0  0  0  0  0
   -3.1061   -0.1650   -5.1048 H   0  0  0  0  0  0  0  0  0  0  0  0
   -1.2378   -1.7749   -5.1575 H   0  0  0  0  0  0  0  0  0  0  0  0
    0.6712    0.1733   -9.3257 H   0  0  0  0  0  0  0  0  0  0  0  0
   -0.4440   -1.2328   -9.2426 H   0  0  0  0  0  0  0  0  0  0  0  0
    2.5163   -1.2743   -9.0839 H   0  0  0  0  0  0  0  0  0  0  0  0
    1.3950   -1.9076  -10.3739 H   0  0  0  0  0  0  0  0  0  0  0  0
    1.9708   -4.2128   -7.1751 H   0  0  0  0  0  0  0  0  0  0  0  0
    0.5834   -3.0343   -7.1204 H   0  0  0  0  0  0  0  0  0  0  0  0
    3.0888   -2.8340   -5.9152 H   0  0  0  0  0  0  0  0  0  0  0  0
    1.6729   -1.7364   -5.9075 H   0  0  0  0  0  0  0  0  0  0  0  0
    4.7301   -0.9661   -6.0172 H   0  0  0  0  0  0  0  0  0  0  0  0
    4.8640   -0.5692   -7.7853 H   0  0  0  0  0  0  0  0  0  0  0  0
    6.3022   -2.4109   -6.8906 H   0  0  0  0  0  0  0  0  0  0  0  0
    5.3001   -2.6582   -8.3694 H   0  0  0  0  0  0  0  0  0  0  0  0
    2.8451   -3.9532   -3.7626 H   0  0  0  0  0  0  0  0  0  0  0  0
    1.4573   -5.8080   -3.0397 H   0  0  0  0  0  0  0  0  0  0  0  0
    7.4389   -9.5583    2.6530 H   0  0  0  0  0  0  0  0  0  0  0  0
    8.2541  -13.1945    0.6828 H   0  0  0  0  0  0  0  0  0  0  0  0
    4.1488  -13.5000    1.8885 H   0  0  0  0  0  0  0  0  0  0  0  0
    2.0138  -14.9969    1.8786 H   0  0  0  0  0  0  0  0  0  0  0  0
    1.4497  -11.9104   -0.8214 H   0  0  0  0  0  0  0  0  0  0  0  0
   -1.7282  -18.3600    0.6465 H   0  0  0  0  0  0  0  0  0  0  0  0
   -1.4896  -15.9947    4.1267 H   0  0  0  0  0  0  0  0  0  0  0  0
   -6.7879  -10.6454   -3.2184 H   0  0  0  0  0  0  0  0  0  0  0  0
   -4.9105  -11.4183   -6.9127 H   0  0  0  0  0  0  0  0  0  0  0  0
   -2.3141   -8.7348   -4.9033 H   0  0  0  0  0  0  0  0  0  0  0  0
   -0.1406   -7.4260   -5.0742 H   0  0  0  0  0  0  0  0  0  0  0  0
    0.4252  -10.4882   -2.3196 H   0  0  0  0  0  0  0  0  0  0  0  0
   -3.7950  -13.2324   -2.3804 H   0  0  0  0  0  0  0  0  0  0  0  0
   -2.7585  -14.6480   -0.5190 H   0  0  0  0  0  0  0  0  0  0  0  0
    5.7089   -9.2792   -1.0152 H   0  0  0  0  0  0  0  0  0  0  0  0
    4.5804   -7.6561   -2.6387 H   0  0  0  0  0  0  0  0  0  0  0  0
    3.6417   -8.3955   -5.5447 H   0  0  0  0  0  0  0  0  0  0  0  0
    4.9756   -6.5204   -6.3336 H   0  0  0  0  0  0  0  0  0  0  0  0
    0.9744   -0.1499   -5.2665 H   0  0  0  0  0  0  0  0  0  0  0  0
   -0.3414   -1.4897   -2.8803 H   0  0  0  0  0  0  0  0  0  0  0  0
    1.3352   -1.0035   -2.9578 H   0  0  0  0  0  0  0  0  0  0  0  0
    0.7460   -2.2778   -3.9981 H   0  0  0  0  0  0  0  0  0  0  0  0
  1  2  1  0  0  0  0
  1 96  1  0  0  0  0
  1 97  1  0  0  0  0
  1 98  1  0  0  0  0
  2  3  1  0  0  0  0
  2 99  1  0  0  0  0
  2100  1  0  0  0  0
  3  4  1  0  0  0  0
  4  5  2  0  0  0  0
  4  6  1  0  0  0  0
  6  7  1  0  0  0  0
  6101  1  0  0  0  0
  7  8  2  0  0  0  0
  7  9  1  0  0  0  0
  9 10  1  0  0  0  0
  9102  1  0  0  0  0
  9103  1  0  0  0  0
 10 11  1  0  0  0  0
 10 94  1  0  0  0  0
 10104  1  1  0  0  0
 11 12  1  0  0  0  0
 11105  1  0  0  0  0
 11106  1  0  0  0  0
 12 13  1  0  0  0  0
 12107  1  0  0  0  0
 12108  1  0  0  0  0
 13 14  1  0  0  0  0
 13 94  1  0  0  0  0
 13109  1  1  0  0  0
 14 15  2  0  0  0  0
 14 16  1  0  0  0  0
 16 17  1  0  0  0  0
 17 18  1  0  0  0  0
 17110  1  0  0  0  0
 17111  1  0  0  0  0
 18 19  1  0  0  0  0
 18112  1  0  0  0  0
 18113  1  0  0  0  0
 19 20  1  0  0  0  0
 20 21  1  0  0  0  0
 20114  1  0  0  0  0
 20115  1  0  0  0  0
 21 22  1  0  0  0  0
 21116  1  0  0  0  0
 21117  1  0  0  0  0
 22 23  1  0  0  0  0
 23 24  1  0  0  0  0
 23118  1  0  0  0  0
 23119  1  0  0  0  0
 24 25  1  0  0  0  0
 24120  1  0  0  0  0
 24121  1  0  0  0  0
 25 26  1  0  0  0  0
 26 27  2  0  0  0  0
 26 28  1  0  0  0  0
 28 29  1  0  0  0  0
 28 93  2  0  0  0  0
 29 30  2  0  0  0  0
 29122  1  0  0  0  0
 30 31  1  0  0  0  0
 30123  1  0  0  0  0
 31 32  1  0  0  0  0
 31 92  2  0  0  0  0
 32 33  1  0  0  0  0
 32 86  2  0  0  0  0
 33 34  2  0  0  0  0
 33 91  1  0  0  0  0
 34 35  1  0  0  0  0
 35 36  2  0  0  0  0
 35 90  1  0  0  0  0
 36 37  1  0  0  0  0
 36 49  1  0  0  0  0
 37 38  1  0  0  0  0
 37 47  2  0  0  0  0
 38 39  1  0  0  0  0
 38 40  2  0  0  0  0
 40 41  1  0  0  0  0
 40124  1  0  0  0  0
 41 42  1  0  0  0  0
 41 46  2  0  0  0  0
 42 43  2  0  0  0  0
 42 44  2  0  0  0  0
 42 45  1  0  0  0  0
 46 47  1  0  0  0  0
 46125  1  0  0  0  0
 47 48  1  0  0  0  0
 49 50  2  0  0  0  0
 49 53  1  0  0  0  0
 50 51  1  0  0  0  0
 50126  1  0  0  0  0
 51 52  2  0  0  0  0
 51127  1  0  0  0  0
 52 53  1  0  0  0  0
 52 54  1  0  0  0  0
 53128  1  0  0  0  0
 54 55  1  0  0  0  0
 54 67  2  0  0  0  0
 55 56  1  0  0  0  0
 55 65  2  0  0  0  0
 56 57  1  0  0  0  0
 56 58  2  0  0  0  0
 58 59  1  0  0  0  0
 58129  1  0  0  0  0
 59 60  1  0  0  0  0
 59 64  2  0  0  0  0
 60 61  2  0  0  0  0
 60 62  2  0  0  0  0
 60 63  1  0  0  0  0
 64 65  1  0  0  0  0
 64130  1  0  0  0  0
 65 66  1  0  0  0  0
 67 68  1  0  0  0  0
 67 89  1  0  0  0  0
 68 69  2  0  0  0  0
 69 70  1  0  0  0  0
 69 88  1  0  0  0  0
 70 71  1  0  0  0  0
 70 83  2  0  0  0  0
 71 72  1  0  0  0  0
 71 81  2  0  0  0  0
 72 73  1  0  0  0  0
 72 74  2  0  0  0  0
 74 75  1  0  0  0  0
 74131  1  0  0  0  0
 75 76  1  0  0  0  0
 75 80  2  0  0  0  0
 76 77  2  0  0  0  0
 76 78  2  0  0  0  0
 76 79  1  0  0  0  0
 80 81  1  0  0  0  0
 80132  1  0  0  0  0
 81 82  1  0  0  0  0
 83 84  1  0  0  0  0
 83 87  1  0  0  0  0
 84 85  2  0  0  0  0
 84133  1  0  0  0  0
 85 86  1  0  0  0  0
 85134  1  0  0  0  0
 86 87  1  0  0  0  0
 87135  1  0  0  0  0
 88 89  2  0  0  0  0
 88136  1  0  0  0  0
 89137  1  0  0  0  0
 90 91  2  0  0  0  0
 90138  1  0  0  0  0
 91139  1  0  0  0  0
 92 93  1  0  0  0  0
 92140  1  0  0  0  0
 93141  1  0  0  0  0
 94 95  1  0  0  0  0
 94142  1  6  0  0  0
 95143  1  0  0  0  0
 95144  1  0  0  0  0
 95145  1  0  0  0  0
M  CHG  4  10   1  45  -1  63  -1  79  -1
M  END
$$$$
