4_6_4879
 OpenBabel04152301373D

150160  0  0  0  0  0  0  0  0999 V2000
    1.9942    0.2092   -0.5099 C   0  0  0  0  0  0  0  0  0  0  0  0
    0.5530   -0.0821   -0.6517 C   0  0  0  0  0  0  0  0  0  0  0  0
   -0.1755   -1.1539   -1.1143 C   0  0  0  0  0  0  0  0  0  0  0  0
   -1.5171   -0.9088   -0.6797 C   0  0  0  0  0  0  0  0  0  0  0  0
   -2.7257   -1.7672   -0.7399 C   0  0  0  0  0  0  0  0  0  0  0  0
   -3.8604   -1.2888   -0.8020 O   0  0  0  0  0  0  0  0  0  0  0  0
   -2.6103   -3.1529   -0.8433 N   0  0  0  0  0  0  0  0  0  0  0  0
   -1.5332   -3.9751   -0.4888 C   0  0  0  0  0  0  0  0  0  0  0  0
   -1.1844   -5.0558   -1.2874 C   0  0  0  0  0  0  0  0  0  0  0  0
    0.0167   -5.7260   -1.0428 C   0  0  0  0  0  0  0  0  0  0  0  0
    0.8610   -5.3038   -0.0105 C   0  0  0  0  0  0  0  0  0  0  0  0
    0.4659   -4.2710    0.8471 C   0  0  0  0  0  0  0  0  0  0  0  0
    1.4211   -3.8037    1.8878 C   0  0  0  0  0  0  0  0  0  0  0  0
    2.4442   -4.4530    2.1034 O   0  0  0  0  0  0  0  0  0  0  0  0
    1.2616   -2.6305    2.5745 N   0  0  0  0  0  0  0  0  0  0  0  0
    0.3256   -1.5180    2.4261 C   0  0  0  0  0  0  0  0  0  0  0  0
   -0.9787   -1.4730    3.2291 C   0  0  0  0  0  0  0  0  0  0  0  0
   -1.8513   -0.6403    3.0144 O   0  0  0  0  0  0  0  0  0  0  0  0
   -1.0001   -2.3670    4.2425 O   0  0  0  0  0  0  0  0  0  0  0  0
   -2.0485   -2.1875    5.2011 C   0  0  0  0  0  0  0  0  0  0  0  0
   -1.6152   -1.5087    6.5101 C   0  0  0  0  0  0  0  0  0  0  0  0
   -0.9050   -0.2765    6.5367 O   0  0  0  0  0  0  0  0  0  0  0  0
    0.2332   -0.0257    5.7271 C   0  0  0  0  0  0  0  0  0  0  0  0
    1.3559   -1.0596    5.5549 C   0  0  0  0  0  0  0  0  0  0  0  0
    1.0191   -2.3797    5.9076 O   0  0  0  0  0  0  0  0  0  0  0  0
    1.3939   -2.8148    7.2104 C   0  0  0  0  0  0  0  0  0  0  0  0
    1.4804   -1.7605    8.3355 C   0  0  0  0  0  0  0  0  0  0  0  0
    2.2159   -0.5888    8.0054 O   0  0  0  0  0  0  0  0  0  0  0  0
    3.6078   -0.5344    8.2887 C   0  0  0  0  0  0  0  0  0  0  0  0
    4.5421   -1.5573    7.6147 C   0  0  0  0  0  0  0  0  0  0  0  0
    4.3000   -2.9413    7.9062 O   0  0  0  0  0  0  0  0  0  0  0  0
    4.2471   -3.3079    9.2053 C   0  0  0  0  0  0  0  0  0  0  0  0
    4.4837   -2.6114   10.1700 O   0  0  0  0  0  0  0  0  0  0  0  0
    3.6329   -4.6519    9.2743 C   0  0  0  0  0  0  0  0  0  0  0  0
    2.4871   -4.8184   10.0626 C   0  0  0  0  0  0  0  0  0  0  0  0
    1.9332   -6.0847   10.2283 C   0  0  0  0  0  0  0  0  0  0  0  0
    2.5516   -7.1958    9.6425 C   0  0  0  0  0  0  0  0  0  0  0  0
    2.2066   -8.5465   10.1479 C   0  0  0  0  0  0  0  0  0  0  0  0
    3.0878   -9.1460   11.2132 C   0  0  0  0  0  0  0  0  0  0  0  0
    2.9898  -10.2973   11.8239 N   0  0  0  0  0  0  0  0  0  0  0  0
    4.0616  -10.3472   12.7085 C   0  0  0  0  0  0  0  0  0  0  0  0
    4.3801  -11.3150   13.5999 C   0  0  0  0  0  0  0  0  0  0  0  0
    5.6187  -11.1145   14.4307 C   0  0  0  0  0  0  0  0  0  0  0  0
    5.6883  -10.1398   15.4397 C   0  0  0  0  0  0  0  0  0  0  0  0
    4.6473   -9.3218   15.6636 F   0  0  0  0  0  0  0  0  0  0  0  0
    6.8414   -9.9570   16.1967 C   0  0  0  0  0  0  0  0  0  0  0  0
    7.9424  -10.7836   15.9660 C   0  0  0  0  0  0  0  0  0  0  0  0
    9.4281  -10.5388   16.9614 S   0  0  0  0  0  0  0  0  0  0  0  0
    9.9291   -9.2743   16.4314 O   0  0  0  0  0  0  0  0  0  0  0  0
    8.8893  -10.4886   18.3167 O   0  0  0  0  0  0  0  0  0  0  0  0
   10.2405  -11.7121   16.6555 O   0  5  0  0  0  0  0  0  0  0  0  0
    7.9006  -11.7795   14.9919 C   0  0  0  0  0  0  0  0  0  0  0  0
    6.7480  -11.9236   14.2257 C   0  0  0  0  0  0  0  0  0  0  0  0
    6.7398  -12.8662   13.2700 F   0  0  0  0  0  0  0  0  0  0  0  0
    3.6230  -12.5267   13.7726 C   0  0  0  0  0  0  0  0  0  0  0  0
    3.8553  -13.5685   14.6527 C   0  0  0  0  0  0  0  0  0  0  0  0
    2.8968  -14.5599   14.4180 C   0  0  0  0  0  0  0  0  0  0  0  0
    2.0269  -14.1077   13.4384 C   0  0  0  0  0  0  0  0  0  0  0  0
    2.4904  -12.8631   13.0449 N   0  0  0  0  0  0  0  0  0  0  0  0
    0.8571  -14.7614   12.9044 C   0  0  0  0  0  0  0  0  0  0  0  0
    0.4726  -16.0979   13.4841 C   0  0  0  0  0  0  0  0  0  0  0  0
    0.5634  -17.2860   12.7416 C   0  0  0  0  0  0  0  0  0  0  0  0
    0.9812  -17.2557   11.4661 F   0  0  0  0  0  0  0  0  0  0  0  0
    0.1843  -18.5118   13.2807 C   0  0  0  0  0  0  0  0  0  0  0  0
   -0.2608  -18.5636   14.6030 C   0  0  0  0  0  0  0  0  0  0  0  0
   -0.7540  -20.1586   15.2893 S   0  0  0  0  0  0  0  0  0  0  0  0
   -2.0283  -20.3861   14.6159 O   0  0  0  0  0  0  0  0  0  0  0  0
    0.3441  -21.0285   14.8794 O   0  0  0  0  0  0  0  0  0  0  0  0
   -0.8394  -19.9004   16.7236 O   0  5  0  0  0  0  0  0  0  0  0  0
   -0.3210  -17.4118   15.3851 C   0  0  0  0  0  0  0  0  0  0  0  0
    0.0293  -16.1923   14.8143 C   0  0  0  0  0  0  0  0  0  0  0  0
   -0.0603  -15.0916   15.5779 F   0  0  0  0  0  0  0  0  0  0  0  0
    0.0531  -14.2443   11.9403 C   0  0  0  0  0  0  0  0  0  0  0  0
    0.1494  -13.0266   11.2719 N   0  0  0  0  0  0  0  0  0  0  0  0
   -0.8565  -12.9976   10.4286 C   0  0  0  0  0  0  0  0  0  0  0  0
   -1.2680  -11.9034    9.4747 C   0  0  0  0  0  0  0  0  0  0  0  0
   -2.4557  -12.0703    8.5930 C   0  0  0  0  0  0  0  0  0  0  0  0
   -3.7544  -12.1270    9.1204 C   0  0  0  0  0  0  0  0  0  0  0  0
   -3.9448  -12.0327   10.4453 F   0  0  0  0  0  0  0  0  0  0  0  0
   -4.8665  -12.3116    8.3042 C   0  0  0  0  0  0  0  0  0  0  0  0
   -4.6841  -12.4147    6.9240 C   0  0  0  0  0  0  0  0  0  0  0  0
   -6.1379  -12.6035    5.8692 S   0  0  0  0  0  0  0  0  0  0  0  0
   -6.5450  -13.9709    6.1701 O   0  0  0  0  0  0  0  0  0  0  0  0
   -7.0156  -11.5499    6.3691 O   0  0  0  0  0  0  0  0  0  0  0  0
   -5.6091  -12.3832    4.5262 O   0  5  0  0  0  0  0  0  0  0  0  0
   -3.4108  -12.3440    6.3616 C   0  0  0  0  0  0  0  0  0  0  0  0
   -2.3124  -12.1886    7.2012 C   0  0  0  0  0  0  0  0  0  0  0  0
   -1.0929  -12.1341    6.6432 F   0  0  0  0  0  0  0  0  0  0  0  0
   -0.5415  -10.7688    9.4226 C   0  0  0  0  0  0  0  0  0  0  0  0
   -0.8198   -9.6101    8.5748 C   0  0  0  0  0  0  0  0  0  0  0  0
    0.1511   -8.6946    8.7432 C   0  0  0  0  0  0  0  0  0  0  0  0
    1.1045   -9.1941    9.7319 C   0  0  0  0  0  0  0  0  0  0  0  0
    0.6026  -10.4177   10.0976 N   0  0  0  0  0  0  0  0  0  0  0  0
   -1.6866  -14.2099   10.4448 C   0  0  0  0  0  0  0  0  0  0  0  0
   -1.1181  -14.9141   11.4133 C   0  0  0  0  0  0  0  0  0  0  0  0
    4.8187   -9.1290   12.5291 C   0  0  0  0  0  0  0  0  0  0  0  0
    4.2359   -8.3315   11.6483 C   0  0  0  0  0  0  0  0  0  0  0  0
    3.6490   -7.0127    8.7821 C   0  0  0  0  0  0  0  0  0  0  0  0
    4.1900   -5.7373    8.5943 C   0  0  0  0  0  0  0  0  0  0  0  0
   -0.7865   -3.6997    0.6485 C   0  0  0  0  0  0  0  0  0  0  0  0
   -1.5894    0.3320   -0.1601 N   0  0  0  0  0  0  0  0  0  0  0  0
   -0.3024    0.8271   -0.1194 O   0  0  0  0  0  0  0  0  0  0  0  0
    2.5629   -0.5742   -0.9657 H   0  0  0  0  0  0  0  0  0  0  0  0
    2.2445    0.2740    0.5284 H   0  0  0  0  0  0  0  0  0  0  0  0
    2.2191    1.1388   -0.9897 H   0  0  0  0  0  0  0  0  0  0  0  0
    0.1707   -1.9603   -1.6573 H   0  0  0  0  0  0  0  0  0  0  0  0
   -3.3938   -3.6174   -1.2169 H   0  0  0  0  0  0  0  0  0  0  0  0
   -1.8054   -5.3606   -2.0532 H   0  0  0  0  0  0  0  0  0  0  0  0
    0.2820   -6.5353   -1.6256 H   0  0  0  0  0  0  0  0  0  0  0  0
    1.7795   -5.7561    0.1192 H   0  0  0  0  0  0  0  0  0  0  0  0
    1.9026   -2.5132    3.3125 H   0  0  0  0  0  0  0  0  0  0  0  0
    0.0483   -1.4892    1.3931 H   0  0  0  0  0  0  0  0  0  0  0  0
    0.8764   -0.6917    2.8245 H   0  0  0  0  0  0  0  0  0  0  0  0
   -2.4480   -3.1505    5.4418 H   0  0  0  0  0  0  0  0  0  0  0  0
   -2.7644   -1.5354    4.7461 H   0  0  0  0  0  0  0  0  0  0  0  0
   -0.9982   -2.2176    7.0216 H   0  0  0  0  0  0  0  0  0  0  0  0
   -2.5574   -1.2263    6.9313 H   0  0  0  0  0  0  0  0  0  0  0  0
    0.6950    0.8539    6.1246 H   0  0  0  0  0  0  0  0  0  0  0  0
   -0.1929    0.0072    4.7462 H   0  0  0  0  0  0  0  0  0  0  0  0
    2.1813   -0.7554    6.1640 H   0  0  0  0  0  0  0  0  0  0  0  0
    1.5791   -1.0814    4.5087 H   0  0  0  0  0  0  0  0  0  0  0  0
    2.3587   -3.2700    7.1274 H   0  0  0  0  0  0  0  0  0  0  0  0
    0.5967   -3.4610    7.5135 H   0  0  0  0  0  0  0  0  0  0  0  0
    1.9466   -2.2173    9.1834 H   0  0  0  0  0  0  0  0  0  0  0  0
    0.4768   -1.4407    8.5237 H   0  0  0  0  0  0  0  0  0  0  0  0
    3.7187   -0.6559    9.3460 H   0  0  0  0  0  0  0  0  0  0  0  0
    3.9181    0.4061    7.8837 H   0  0  0  0  0  0  0  0  0  0  0  0
    5.5429   -1.3321    7.9191 H   0  0  0  0  0  0  0  0  0  0  0  0
    4.3605   -1.4551    6.5652 H   0  0  0  0  0  0  0  0  0  0  0  0
    2.0533   -4.0018   10.5208 H   0  0  0  0  0  0  0  0  0  0  0  0
    1.0699   -6.2040   10.7809 H   0  0  0  0  0  0  0  0  0  0  0  0
    6.8821   -9.2206   16.9186 H   0  0  0  0  0  0  0  0  0  0  0  0
    8.7113  -12.4000   14.8413 H   0  0  0  0  0  0  0  0  0  0  0  0
    4.6058  -13.6075   15.3600 H   0  0  0  0  0  0  0  0  0  0  0  0
    2.8460  -15.4741   14.8941 H   0  0  0  0  0  0  0  0  0  0  0  0
    2.0771  -12.3001   12.3511 H   0  0  0  0  0  0  0  0  0  0  0  0
    0.2316  -19.3708   12.7108 H   0  0  0  0  0  0  0  0  0  0  0  0
   -0.6205  -17.4626   16.3714 H   0  0  0  0  0  0  0  0  0  0  0  0
   -5.8121  -12.3714    8.7133 H   0  0  0  0  0  0  0  0  0  0  0  0
   -3.2848  -12.4059    5.3392 H   0  0  0  0  0  0  0  0  0  0  0  0
   -1.6326   -9.5106    7.9467 H   0  0  0  0  0  0  0  0  0  0  0  0
    0.2127   -7.7879    8.2543 H   0  0  0  0  0  0  0  0  0  0  0  0
    1.0227  -10.9902   10.7795 H   0  0  0  0  0  0  0  0  0  0  0  0
   -2.4995  -14.4502    9.8562 H   0  0  0  0  0  0  0  0  0  0  0  0
   -1.4663  -15.8255   11.7497 H   0  0  0  0  0  0  0  0  0  0  0  0
    5.6980   -8.9100   13.0229 H   0  0  0  0  0  0  0  0  0  0  0  0
    4.5135   -7.3849   11.3450 H   0  0  0  0  0  0  0  0  0  0  0  0
    4.0561   -7.8221    8.2880 H   0  0  0  0  0  0  0  0  0  0  0  0
    4.9923   -5.5993    7.9601 H   0  0  0  0  0  0  0  0  0  0  0  0
   -1.1683   -3.0581    1.3610 H   0  0  0  0  0  0  0  0  0  0  0  0
  1  2  1  0  0  0  0
  1103  1  0  0  0  0
  1104  1  0  0  0  0
  1105  1  0  0  0  0
  2  3  2  0  0  0  0
  2102  1  0  0  0  0
  3  4  1  0  0  0  0
  3106  1  0  0  0  0
  4  5  1  0  0  0  0
  4101  2  0  0  0  0
  5  6  2  0  0  0  0
  5  7  1  0  0  0  0
  7  8  1  0  0  0  0
  7107  1  0  0  0  0
  8  9  1  0  0  0  0
  8100  2  0  0  0  0
  9 10  2  0  0  0  0
  9108  1  0  0  0  0
 10 11  1  0  0  0  0
 10109  1  0  0  0  0
 11 12  2  0  0  0  0
 11110  1  0  0  0  0
 12 13  1  0  0  0  0
 12100  1  0  0  0  0
 13 14  2  0  0  0  0
 13 15  1  0  0  0  0
 15 16  1  0  0  0  0
 15111  1  0  0  0  0
 16 17  1  0  0  0  0
 16112  1  0  0  0  0
 16113  1  0  0  0  0
 17 18  2  0  0  0  0
 17 19  1  0  0  0  0
 19 20  1  0  0  0  0
 20 21  1  0  0  0  0
 20114  1  0  0  0  0
 20115  1  0  0  0  0
 21 22  1  0  0  0  0
 21116  1  0  0  0  0
 21117  1  0  0  0  0
 22 23  1  0  0  0  0
 23 24  1  0  0  0  0
 23118  1  0  0  0  0
 23119  1  0  0  0  0
 24 25  1  0  0  0  0
 24120  1  0  0  0  0
 24121  1  0  0  0  0
 25 26  1  0  0  0  0
 26 27  1  0  0  0  0
 26122  1  0  0  0  0
 26123  1  0  0  0  0
 27 28  1  0  0  0  0
 27124  1  0  0  0  0
 27125  1  0  0  0  0
 28 29  1  0  0  0  0
 29 30  1  0  0  0  0
 29126  1  0  0  0  0
 29127  1  0  0  0  0
 30 31  1  0  0  0  0
 30128  1  0  0  0  0
 30129  1  0  0  0  0
 31 32  1  0  0  0  0
 32 33  2  0  0  0  0
 32 34  1  0  0  0  0
 34 35  1  0  0  0  0
 34 99  2  0  0  0  0
 35 36  2  0  0  0  0
 35130  1  0  0  0  0
 36 37  1  0  0  0  0
 36131  1  0  0  0  0
 37 38  1  0  0  0  0
 37 98  2  0  0  0  0
 38 39  1  0  0  0  0
 38 92  2  0  0  0  0
 39 40  2  0  0  0  0
 39 97  1  0  0  0  0
 40 41  1  0  0  0  0
 41 42  2  0  0  0  0
 41 96  1  0  0  0  0
 42 43  1  0  0  0  0
 42 55  1  0  0  0  0
 43 44  1  0  0  0  0
 43 53  2  0  0  0  0
 44 45  1  0  0  0  0
 44 46  2  0  0  0  0
 46 47  1  0  0  0  0
 46132  1  0  0  0  0
 47 48  1  0  0  0  0
 47 52  2  0  0  0  0
 48 49  2  0  0  0  0
 48 50  2  0  0  0  0
 48 51  1  0  0  0  0
 52 53  1  0  0  0  0
 52133  1  0  0  0  0
 53 54  1  0  0  0  0
 55 56  2  0  0  0  0
 55 59  1  0  0  0  0
 56 57  1  0  0  0  0
 56134  1  0  0  0  0
 57 58  2  0  0  0  0
 57135  1  0  0  0  0
 58 59  1  0  0  0  0
 58 60  1  0  0  0  0
 59136  1  0  0  0  0
 60 61  1  0  0  0  0
 60 73  2  0  0  0  0
 61 62  1  0  0  0  0
 61 71  2  0  0  0  0
 62 63  1  0  0  0  0
 62 64  2  0  0  0  0
 64 65  1  0  0  0  0
 64137  1  0  0  0  0
 65 66  1  0  0  0  0
 65 70  2  0  0  0  0
 66 67  2  0  0  0  0
 66 68  2  0  0  0  0
 66 69  1  0  0  0  0
 70 71  1  0  0  0  0
 70138  1  0  0  0  0
 71 72  1  0  0  0  0
 73 74  1  0  0  0  0
 73 95  1  0  0  0  0
 74 75  2  0  0  0  0
 75 76  1  0  0  0  0
 75 94  1  0  0  0  0
 76 77  1  0  0  0  0
 76 89  2  0  0  0  0
 77 78  1  0  0  0  0
 77 87  2  0  0  0  0
 78 79  1  0  0  0  0
 78 80  2  0  0  0  0
 80 81  1  0  0  0  0
 80139  1  0  0  0  0
 81 82  1  0  0  0  0
 81 86  2  0  0  0  0
 82 83  2  0  0  0  0
 82 84  2  0  0  0  0
 82 85  1  0  0  0  0
 86 87  1  0  0  0  0
 86140  1  0  0  0  0
 87 88  1  0  0  0  0
 89 90  1  0  0  0  0
 89 93  1  0  0  0  0
 90 91  2  0  0  0  0
 90141  1  0  0  0  0
 91 92  1  0  0  0  0
 91142  1  0  0  0  0
 92 93  1  0  0  0  0
 93143  1  0  0  0  0
 94 95  2  0  0  0  0
 94144  1  0  0  0  0
 95145  1  0  0  0  0
 96 97  2  0  0  0  0
 96146  1  0  0  0  0
 97147  1  0  0  0  0
 98 99  1  0  0  0  0
 98148  1  0  0  0  0
 99149  1  0  0  0  0
100150  1  0  0  0  0
101102  1  0  0  0  0
M  CHG  3  51  -1  69  -1  85  -1
M  END
$$$$
