4_6_8200
 OpenBabel04152301363D

151161  0  0  1  0  0  0  0  0999 V2000
    1.7940   -0.1175   -0.7651 C   0  0  0  0  0  0  0  0  0  0  0  0
    0.8782   -0.0815    0.4600 C   0  0  2  0  0  0  0  0  0  0  0  0
   -0.1011   -1.2545    0.4721 C   0  0  0  0  0  0  0  0  0  0  0  0
   -1.2780   -0.8065   -0.3886 C   0  0  0  0  0  0  0  0  0  0  0  0
   -1.2322    0.7226   -0.4310 C   0  0  0  0  0  0  0  0  0  0  0  0
   -0.0427    1.1472    0.4354 C   0  0  1  0  0  0  0  0  0  0  0  0
   -0.4975    1.4865    1.7790 N   0  0  0  0  0  0  0  0  0  0  0  0
   -0.2973    2.6043    2.5464 C   0  0  0  0  0  0  0  0  0  0  0  0
   -0.6267    2.5491    3.7302 O   0  0  0  0  0  0  0  0  0  0  0  0
    0.2883    3.8165    1.9823 C   0  0  0  0  0  0  0  0  0  0  0  0
    0.0483    4.3291    0.7237 C   0  0  0  0  0  0  0  0  0  0  0  0
    0.8837    5.7838    0.4241 S   0  0  0  0  0  0  0  0  0  0  0  0
    1.4402    5.8918    2.0502 C   0  0  0  0  0  0  0  0  0  0  0  0
    2.1489    7.0234    2.5578 C   0  0  0  0  0  0  0  0  0  0  0  0
    2.0041    8.2572    2.0456 C   0  0  0  0  0  0  0  0  0  0  0  0
    2.7014    9.4586    2.5508 C   0  0  0  0  0  0  0  0  0  0  0  0
    2.3728   10.5902    2.2302 O   0  0  0  0  0  0  0  0  0  0  0  0
    3.7923    9.1138    3.2610 O   0  0  0  0  0  0  0  0  0  0  0  0
    4.6383   10.1742    3.7068 C   0  0  0  0  0  0  0  0  0  0  0  0
    5.6069   10.7762    2.6748 C   0  0  0  0  0  0  0  0  0  0  0  0
    6.2037   10.0094    1.6457 O   0  0  0  0  0  0  0  0  0  0  0  0
    5.4439    9.0869    0.8897 C   0  0  0  0  0  0  0  0  0  0  0  0
    5.6137    7.6239    1.3412 C   0  0  0  0  0  0  0  0  0  0  0  0
    6.1009    7.4125    2.6554 O   0  0  0  0  0  0  0  0  0  0  0  0
    7.4147    7.8480    3.0090 C   0  0  0  0  0  0  0  0  0  0  0  0
    8.4206    8.4310    1.9848 C   0  0  0  0  0  0  0  0  0  0  0  0
    8.1483    8.1145    0.6293 O   0  0  0  0  0  0  0  0  0  0  0  0
    9.0004    7.1867   -0.0161 C   0  0  0  0  0  0  0  0  0  0  0  0
    8.9573    5.7454    0.5085 C   0  0  0  0  0  0  0  0  0  0  0  0
    9.2101    5.5811    1.9119 O   0  0  0  0  0  0  0  0  0  0  0  0
   10.4475    5.8928    2.3517 C   0  0  0  0  0  0  0  0  0  0  0  0
   11.3846    6.2967    1.6782 O   0  0  0  0  0  0  0  0  0  0  0  0
   10.4326    5.8423    3.8268 C   0  0  0  0  0  0  0  0  0  0  0  0
   10.7404    7.0010    4.5513 C   0  0  0  0  0  0  0  0  0  0  0  0
   10.7752    6.9619    5.9456 C   0  0  0  0  0  0  0  0  0  0  0  0
   10.5347    5.7567    6.6194 C   0  0  0  0  0  0  0  0  0  0  0  0
   10.8608    5.6452    8.0633 C   0  0  0  0  0  0  0  0  0  0  0  0
   12.1708    5.0119    8.4526 C   0  0  0  0  0  0  0  0  0  0  0  0
   12.6626    4.7820    9.6418 N   0  0  0  0  0  0  0  0  0  0  0  0
   13.8954    4.1747    9.4300 C   0  0  0  0  0  0  0  0  0  0  0  0
   14.8133    3.7794   10.3438 C   0  0  0  0  0  0  0  0  0  0  0  0
   16.0745    3.1358    9.8334 C   0  0  0  0  0  0  0  0  0  0  0  0
   17.0536    3.8670    9.1411 C   0  0  0  0  0  0  0  0  0  0  0  0
   16.8606    5.1675    8.8687 F   0  0  0  0  0  0  0  0  0  0  0  0
   18.2206    3.2659    8.6798 C   0  0  0  0  0  0  0  0  0  0  0  0
   18.4346    1.9111    8.9396 C   0  0  0  0  0  0  0  0  0  0  0  0
   19.9592    1.1502    8.3439 S   0  0  0  0  0  0  0  0  0  0  0  0
   19.7294    1.1265    6.9025 O   0  0  0  0  0  0  0  0  0  0  0  0
   20.9762    2.0883    8.8078 O   0  0  0  0  0  0  0  0  0  0  0  0
   19.9679   -0.1544    8.9981 O   0  5  0  0  0  0  0  0  0  0  0  0
   17.4973    1.1591    9.6456 C   0  0  0  0  0  0  0  0  0  0  0  0
   16.3230    1.7737   10.0698 C   0  0  0  0  0  0  0  0  0  0  0  0
   15.4199    1.0250   10.7224 F   0  0  0  0  0  0  0  0  0  0  0  0
   14.6416    3.9168   11.7667 C   0  0  0  0  0  0  0  0  0  0  0  0
   15.5170    3.5585   12.7767 C   0  0  0  0  0  0  0  0  0  0  0  0
   14.8973    3.8155   14.0036 C   0  0  0  0  0  0  0  0  0  0  0  0
   13.6639    4.3983   13.7594 C   0  0  0  0  0  0  0  0  0  0  0  0
   13.5166    4.4459   12.3828 N   0  0  0  0  0  0  0  0  0  0  0  0
   12.6926    4.8756   14.7134 C   0  0  0  0  0  0  0  0  0  0  0  0
   13.0392    4.7705   16.1760 C   0  0  0  0  0  0  0  0  0  0  0  0
   12.3777    3.8802   17.0364 C   0  0  0  0  0  0  0  0  0  0  0  0
   11.3684    3.1222   16.5791 F   0  0  0  0  0  0  0  0  0  0  0  0
   12.7186    3.7801   18.3822 C   0  0  0  0  0  0  0  0  0  0  0  0
   13.7662    4.5589   18.8777 C   0  0  0  0  0  0  0  0  0  0  0  0
   14.2134    4.4009   20.6196 S   0  0  0  0  0  0  0  0  0  0  0  0
   13.0866    5.0579   21.2738 O   0  0  0  0  0  0  0  0  0  0  0  0
   14.2904    2.9534   20.7914 O   0  0  0  0  0  0  0  0  0  0  0  0
   15.4888    5.1055   20.7097 O   0  5  0  0  0  0  0  0  0  0  0  0
   14.4661    5.4314   18.0467 C   0  0  0  0  0  0  0  0  0  0  0  0
   14.0856    5.5402   16.7127 C   0  0  0  0  0  0  0  0  0  0  0  0
   14.7630    6.3983   15.9334 F   0  0  0  0  0  0  0  0  0  0  0  0
   11.5029    5.4413   14.3876 C   0  0  0  0  0  0  0  0  0  0  0  0
   10.9655    5.6962   13.1285 N   0  0  0  0  0  0  0  0  0  0  0  0
    9.7927    6.2462   13.3415 C   0  0  0  0  0  0  0  0  0  0  0  0
    8.7879    6.7620   12.3405 C   0  0  0  0  0  0  0  0  0  0  0  0
    7.5056    7.3666   12.7970 C   0  0  0  0  0  0  0  0  0  0  0  0
    7.4824    8.5836   13.4947 C   0  0  0  0  0  0  0  0  0  0  0  0
    8.6302    9.2249   13.7626 F   0  0  0  0  0  0  0  0  0  0  0  0
    6.2924    9.1401   13.9536 C   0  0  0  0  0  0  0  0  0  0  0  0
    5.0901    8.4831   13.6864 C   0  0  0  0  0  0  0  0  0  0  0  0
    3.5485    9.2386   14.2473 S   0  0  0  0  0  0  0  0  0  0  0  0
    3.6367    9.0513   15.6907 O   0  0  0  0  0  0  0  0  0  0  0  0
    3.6918   10.6108   13.7708 O   0  0  0  0  0  0  0  0  0  0  0  0
    2.5227    8.4514   13.5698 O   0  5  0  0  0  0  0  0  0  0  0  0
    5.0708    7.2826   12.9786 C   0  0  0  0  0  0  0  0  0  0  0  0
    6.2767    6.7309   12.5570 C   0  0  0  0  0  0  0  0  0  0  0  0
    6.2401    5.5677   11.8884 F   0  0  0  0  0  0  0  0  0  0  0  0
    9.0597    6.6634   11.0231 C   0  0  0  0  0  0  0  0  0  0  0  0
    8.1981    7.1228    9.9345 C   0  0  0  0  0  0  0  0  0  0  0  0
    8.7563    6.7909    8.7568 C   0  0  0  0  0  0  0  0  0  0  0  0
   10.0324    6.1240    9.0089 C   0  0  0  0  0  0  0  0  0  0  0  0
   10.1434    6.1165   10.3775 N   0  0  0  0  0  0  0  0  0  0  0  0
    9.4397    6.3699   14.7631 C   0  0  0  0  0  0  0  0  0  0  0  0
   10.5323    5.9082   15.3555 C   0  0  0  0  0  0  0  0  0  0  0  0
   14.0598    4.0364    7.9999 C   0  0  0  0  0  0  0  0  0  0  0  0
   13.0424    4.5777    7.3477 C   0  0  0  0  0  0  0  0  0  0  0  0
   10.1666    4.6139    5.8872 C   0  0  0  0  0  0  0  0  0  0  0  0
   10.1152    4.6550    4.4911 C   0  0  0  0  0  0  0  0  0  0  0  0
    1.1080    4.7331    2.7332 C   0  0  0  0  0  0  0  0  0  0  0  0
    2.4206   -0.9835   -0.7167 H   0  0  0  0  0  0  0  0  0  0  0  0
    2.4025    0.7625   -0.7815 H   0  0  0  0  0  0  0  0  0  0  0  0
    1.1994   -0.1566   -1.6538 H   0  0  0  0  0  0  0  0  0  0  0  0
    1.5434   -0.0908    1.2981 H   0  0  0  0  0  0  0  0  0  0  0  0
   -0.4248   -1.4620    1.4706 H   0  0  0  0  0  0  0  0  0  0  0  0
    0.3470   -2.1516    0.0987 H   0  0  0  0  0  0  0  0  0  0  0  0
   -2.1990   -1.1363    0.0449 H   0  0  0  0  0  0  0  0  0  0  0  0
   -1.2161   -1.2217   -1.3728 H   0  0  0  0  0  0  0  0  0  0  0  0
   -2.1399    1.1305   -0.0378 H   0  0  0  0  0  0  0  0  0  0  0  0
   -1.1261    1.0785   -1.4345 H   0  0  0  0  0  0  0  0  0  0  0  0
    0.4581    2.0127    0.0547 H   0  0  0  0  0  0  0  0  0  0  0  0
   -1.0442    0.7906    2.2103 H   0  0  0  0  0  0  0  0  0  0  0  0
   -0.5734    3.8777    0.0346 H   0  0  0  0  0  0  0  0  0  0  0  0
    2.7976    6.8881    3.3490 H   0  0  0  0  0  0  0  0  0  0  0  0
    1.3628    8.3738    1.2455 H   0  0  0  0  0  0  0  0  0  0  0  0
    5.2248    9.7992    4.5194 H   0  0  0  0  0  0  0  0  0  0  0  0
    3.9725   10.9723    3.9613 H   0  0  0  0  0  0  0  0  0  0  0  0
    6.4146   11.1963    3.2370 H   0  0  0  0  0  0  0  0  0  0  0  0
    4.9574   11.4183    2.1173 H   0  0  0  0  0  0  0  0  0  0  0  0
    5.7450    9.1610   -0.1344 H   0  0  0  0  0  0  0  0  0  0  0  0
    4.4142    9.3398    1.0331 H   0  0  0  0  0  0  0  0  0  0  0  0
    6.2953    7.1532    0.6638 H   0  0  0  0  0  0  0  0  0  0  0  0
    4.6252    7.2143    1.3401 H   0  0  0  0  0  0  0  0  0  0  0  0
    7.8982    6.9987    3.4447 H   0  0  0  0  0  0  0  0  0  0  0  0
    7.1985    8.7089    3.6065 H   0  0  0  0  0  0  0  0  0  0  0  0
    9.3934    8.0551    2.2243 H   0  0  0  0  0  0  0  0  0  0  0  0
    8.3446    9.4953    2.0641 H   0  0  0  0  0  0  0  0  0  0  0  0
   10.0049    7.5409    0.0859 H   0  0  0  0  0  0  0  0  0  0  0  0
    8.6513    7.1333   -1.0261 H   0  0  0  0  0  0  0  0  0  0  0  0
    9.6924    5.1801   -0.0254 H   0  0  0  0  0  0  0  0  0  0  0  0
    7.9526    5.4111    0.3542 H   0  0  0  0  0  0  0  0  0  0  0  0
   10.9413    7.8828    4.0542 H   0  0  0  0  0  0  0  0  0  0  0  0
   10.9781    7.8206    6.4809 H   0  0  0  0  0  0  0  0  0  0  0  0
   18.9184    3.8141    8.1529 H   0  0  0  0  0  0  0  0  0  0  0  0
   17.6713    0.1627    9.8505 H   0  0  0  0  0  0  0  0  0  0  0  0
   16.4638    3.1689   12.6469 H   0  0  0  0  0  0  0  0  0  0  0  0
   15.2919    3.6064   14.9340 H   0  0  0  0  0  0  0  0  0  0  0  0
   12.7295    4.8026   11.9111 H   0  0  0  0  0  0  0  0  0  0  0  0
   12.2038    3.1387   19.0056 H   0  0  0  0  0  0  0  0  0  0  0  0
   15.2536    5.9877   18.4146 H   0  0  0  0  0  0  0  0  0  0  0  0
    6.2986   10.0255   14.4837 H   0  0  0  0  0  0  0  0  0  0  0  0
    4.1769    6.8106   12.7706 H   0  0  0  0  0  0  0  0  0  0  0  0
    7.3029    7.6228   10.0515 H   0  0  0  0  0  0  0  0  0  0  0  0
    8.3499    6.9768    7.8266 H   0  0  0  0  0  0  0  0  0  0  0  0
   10.9258    5.7535   10.8521 H   0  0  0  0  0  0  0  0  0  0  0  0
    8.5688    6.7238   15.1889 H   0  0  0  0  0  0  0  0  0  0  0  0
   10.6733    5.8846   16.3776 H   0  0  0  0  0  0  0  0  0  0  0  0
   14.8647    3.5761    7.5469 H   0  0  0  0  0  0  0  0  0  0  0  0
   12.8979    4.6710    6.3301 H   0  0  0  0  0  0  0  0  0  0  0  0
    9.9331    3.7398    6.3836 H   0  0  0  0  0  0  0  0  0  0  0  0
    9.8450    3.8153    3.9554 H   0  0  0  0  0  0  0  0  0  0  0  0
    1.4211    4.5427    3.6979 H   0  0  0  0  0  0  0  0  0  0  0  0
  1  2  1  0  0  0  0
  1100  1  0  0  0  0
  1101  1  0  0  0  0
  1102  1  0  0  0  0
  2  3  1  0  0  0  0
  2  6  1  0  0  0  0
  2103  1  1  0  0  0
  3  4  1  0  0  0  0
  3104  1  0  0  0  0
  3105  1  0  0  0  0
  4  5  1  0  0  0  0
  4106  1  0  0  0  0
  4107  1  0  0  0  0
  5  6  1  0  0  0  0
  5108  1  0  0  0  0
  5109  1  0  0  0  0
  6  7  1  0  0  0  0
  6110  1  6  0  0  0
  7  8  1  0  0  0  0
  7111  1  0  0  0  0
  8  9  2  0  0  0  0
  8 10  1  0  0  0  0
 10 11  2  0  0  0  0
 10 99  1  0  0  0  0
 11 12  1  0  0  0  0
 11112  1  0  0  0  0
 12 13  1  0  0  0  0
 13 14  1  0  0  0  0
 13 99  2  0  0  0  0
 14 15  2  0  0  0  0
 14113  1  0  0  0  0
 15 16  1  0  0  0  0
 15114  1  0  0  0  0
 16 17  2  0  0  0  0
 16 18  1  0  0  0  0
 18 19  1  0  0  0  0
 19 20  1  0  0  0  0
 19115  1  0  0  0  0
 19116  1  0  0  0  0
 20 21  1  0  0  0  0
 20117  1  0  0  0  0
 20118  1  0  0  0  0
 21 22  1  0  0  0  0
 22 23  1  0  0  0  0
 22119  1  0  0  0  0
 22120  1  0  0  0  0
 23 24  1  0  0  0  0
 23121  1  0  0  0  0
 23122  1  0  0  0  0
 24 25  1  0  0  0  0
 25 26  1  0  0  0  0
 25123  1  0  0  0  0
 25124  1  0  0  0  0
 26 27  1  0  0  0  0
 26125  1  0  0  0  0
 26126  1  0  0  0  0
 27 28  1  0  0  0  0
 28 29  1  0  0  0  0
 28127  1  0  0  0  0
 28128  1  0  0  0  0
 29 30  1  0  0  0  0
 29129  1  0  0  0  0
 29130  1  0  0  0  0
 30 31  1  0  0  0  0
 31 32  2  0  0  0  0
 31 33  1  0  0  0  0
 33 34  1  0  0  0  0
 33 98  2  0  0  0  0
 34 35  2  0  0  0  0
 34131  1  0  0  0  0
 35 36  1  0  0  0  0
 35132  1  0  0  0  0
 36 37  1  0  0  0  0
 36 97  2  0  0  0  0
 37 38  1  0  0  0  0
 37 91  2  0  0  0  0
 38 39  2  0  0  0  0
 38 96  1  0  0  0  0
 39 40  1  0  0  0  0
 40 41  2  0  0  0  0
 40 95  1  0  0  0  0
 41 42  1  0  0  0  0
 41 54  1  0  0  0  0
 42 43  1  0  0  0  0
 42 52  2  0  0  0  0
 43 44  1  0  0  0  0
 43 45  2  0  0  0  0
 45 46  1  0  0  0  0
 45133  1  0  0  0  0
 46 47  1  0  0  0  0
 46 51  2  0  0  0  0
 47 48  2  0  0  0  0
 47 49  2  0  0  0  0
 47 50  1  0  0  0  0
 51 52  1  0  0  0  0
 51134  1  0  0  0  0
 52 53  1  0  0  0  0
 54 55  2  0  0  0  0
 54 58  1  0  0  0  0
 55 56  1  0  0  0  0
 55135  1  0  0  0  0
 56 57  2  0  0  0  0
 56136  1  0  0  0  0
 57 58  1  0  0  0  0
 57 59  1  0  0  0  0
 58137  1  0  0  0  0
 59 60  1  0  0  0  0
 59 72  2  0  0  0  0
 60 61  1  0  0  0  0
 60 70  2  0  0  0  0
 61 62  1  0  0  0  0
 61 63  2  0  0  0  0
 63 64  1  0  0  0  0
 63138  1  0  0  0  0
 64 65  1  0  0  0  0
 64 69  2  0  0  0  0
 65 66  2  0  0  0  0
 65 67  2  0  0  0  0
 65 68  1  0  0  0  0
 69 70  1  0  0  0  0
 69139  1  0  0  0  0
 70 71  1  0  0  0  0
 72 73  1  0  0  0  0
 72 94  1  0  0  0  0
 73 74  2  0  0  0  0
 74 75  1  0  0  0  0
 74 93  1  0  0  0  0
 75 76  1  0  0  0  0
 75 88  2  0  0  0  0
 76 77  1  0  0  0  0
 76 86  2  0  0  0  0
 77 78  1  0  0  0  0
 77 79  2  0  0  0  0
 79 80  1  0  0  0  0
 79140  1  0  0  0  0
 80 81  1  0  0  0  0
 80 85  2  0  0  0  0
 81 82  2  0  0  0  0
 81 83  2  0  0  0  0
 81 84  1  0  0  0  0
 85 86  1  0  0  0  0
 85141  1  0  0  0  0
 86 87  1  0  0  0  0
 88 89  1  0  0  0  0
 88 92  1  0  0  0  0
 89 90  2  0  0  0  0
 89142  1  0  0  0  0
 90 91  1  0  0  0  0
 90143  1  0  0  0  0
 91 92  1  0  0  0  0
 92144  1  0  0  0  0
 93 94  2  0  0  0  0
 93145  1  0  0  0  0
 94146  1  0  0  0  0
 95 96  2  0  0  0  0
 95147  1  0  0  0  0
 96148  1  0  0  0  0
 97 98  1  0  0  0  0
 97149  1  0  0  0  0
 98150  1  0  0  0  0
 99151  1  0  0  0  0
M  CHG  3  50  -1  68  -1  84  -1
M  END
$$$$
