4_6_2086
 OpenBabel04152301363D

155165  0  0  0  0  0  0  0  0999 V2000
    1.1924   -1.0984   -0.8547 C   0  0  0  0  0  0  0  0  0  0  0  0
   -0.1656   -0.9689   -0.2115 C   0  0  0  0  0  0  0  0  0  0  0  0
   -0.8907   -2.1282    0.0173 C   0  0  0  0  0  0  0  0  0  0  0  0
   -2.1586   -2.0196    0.5669 C   0  0  0  0  0  0  0  0  0  0  0  0
   -2.6619   -0.7642    0.9002 C   0  0  0  0  0  0  0  0  0  0  0  0
   -1.8802    0.3680    0.6843 C   0  0  0  0  0  0  0  0  0  0  0  0
   -2.5162    1.7514    0.8852 C   0  0  0  0  0  0  0  0  0  0  0  0
   -2.0875    2.6433    1.9864 N   0  3  1  0  0  0  0  0  0  0  0  0
   -2.5107    2.3145    3.3441 C   0  0  0  0  0  0  0  0  0  0  0  0
   -2.1469    3.4759    4.3186 C   0  0  0  0  0  0  0  0  0  0  0  0
   -0.6528    3.8558    4.2305 C   0  0  2  0  0  0  0  0  0  0  0  0
   -0.1846    4.9483    5.0300 O   0  0  0  0  0  0  0  0  0  0  0  0
   -0.6851    6.2529    4.8327 C   0  0  0  0  0  0  0  0  0  0  0  0
   -0.2302    7.4209    3.8961 C   0  0  0  0  0  0  0  0  0  0  0  0
   -0.8509    8.4845    3.8962 O   0  0  0  0  0  0  0  0  0  0  0  0
    0.8912    7.2071    3.1518 O   0  0  0  0  0  0  0  0  0  0  0  0
    1.4652    8.4021    2.5501 C   0  0  0  0  0  0  0  0  0  0  0  0
    1.2840    8.6814    1.0339 C   0  0  0  0  0  0  0  0  0  0  0  0
    0.0635    8.3384    0.3882 O   0  0  0  0  0  0  0  0  0  0  0  0
   -0.3076    6.9711    0.4462 C   0  0  0  0  0  0  0  0  0  0  0  0
    0.7244    5.9376   -0.0259 C   0  0  0  0  0  0  0  0  0  0  0  0
    2.0110    6.1149    0.5479 O   0  0  0  0  0  0  0  0  0  0  0  0
    3.1106    5.2953    0.1415 C   0  0  0  0  0  0  0  0  0  0  0  0
    2.9974    4.5351   -1.1869 C   0  0  0  0  0  0  0  0  0  0  0  0
    2.8258    3.1239   -1.0475 O   0  0  0  0  0  0  0  0  0  0  0  0
    1.8495    2.6842   -0.1167 C   0  0  0  0  0  0  0  0  0  0  0  0
    2.3359    1.6281    0.8816 C   0  0  0  0  0  0  0  0  0  0  0  0
    3.7374    1.4825    0.9205 O   0  0  0  0  0  0  0  0  0  0  0  0
    4.3063    1.0416   -0.2292 C   0  0  0  0  0  0  0  0  0  0  0  0
    3.8200    0.4570   -1.1641 O   0  0  0  0  0  0  0  0  0  0  0  0
    5.6092    1.6991   -0.1743 C   0  0  0  0  0  0  0  0  0  0  0  0
    5.9292    2.6302   -1.1666 C   0  0  0  0  0  0  0  0  0  0  0  0
    7.0671    3.3989   -1.0135 C   0  0  0  0  0  0  0  0  0  0  0  0
    7.8850    3.1662    0.0996 C   0  0  0  0  0  0  0  0  0  0  0  0
    9.2771    3.6058    0.0512 C   0  0  0  0  0  0  0  0  0  0  0  0
   10.2344    2.6475   -0.5880 C   0  0  0  0  0  0  0  0  0  0  0  0
   11.5303    2.7102   -0.6716 N   0  0  0  0  0  0  0  0  0  0  0  0
   11.9078    1.5700   -1.3692 C   0  0  0  0  0  0  0  0  0  0  0  0
   13.1508    1.2124   -1.7524 C   0  0  0  0  0  0  0  0  0  0  0  0
   13.2932   -0.0486   -2.5524 C   0  0  0  0  0  0  0  0  0  0  0  0
   12.8317   -0.1290   -3.8776 C   0  0  0  0  0  0  0  0  0  0  0  0
   12.2184    0.9221   -4.4455 F   0  0  0  0  0  0  0  0  0  0  0  0
   12.9465   -1.2995   -4.6198 C   0  0  0  0  0  0  0  0  0  0  0  0
   13.5550   -2.4124   -4.0382 C   0  0  0  0  0  0  0  0  0  0  0  0
   13.7312   -3.9110   -5.0291 S   0  0  0  0  0  0  0  0  0  0  0  0
   12.3497   -4.3757   -5.1079 O   0  0  0  0  0  0  0  0  0  0  0  0
   14.2980   -3.3961   -6.2714 O   0  0  0  0  0  0  0  0  0  0  0  0
   14.6275   -4.7427   -4.2320 O   0  5  0  0  0  0  0  0  0  0  0  0
   14.0316   -2.3675   -2.7283 C   0  0  0  0  0  0  0  0  0  0  0  0
   13.8838   -1.1925   -1.9958 C   0  0  0  0  0  0  0  0  0  0  0  0
   14.3139   -1.1807   -0.7245 F   0  0  0  0  0  0  0  0  0  0  0  0
   14.3066    1.9871   -1.4051 C   0  0  0  0  0  0  0  0  0  0  0  0
   15.6346    1.7329   -1.6763 C   0  0  0  0  0  0  0  0  0  0  0  0
   16.3899    2.7570   -1.0951 C   0  0  0  0  0  0  0  0  0  0  0  0
   15.5284    3.6747   -0.5070 C   0  0  0  0  0  0  0  0  0  0  0  0
   14.2545    3.1796   -0.6911 N   0  0  0  0  0  0  0  0  0  0  0  0
   15.8600    4.9089    0.1619 C   0  0  0  0  0  0  0  0  0  0  0  0
   17.3108    5.2828    0.1894 C   0  0  0  0  0  0  0  0  0  0  0  0
   18.0715    5.1825    1.3625 C   0  0  0  0  0  0  0  0  0  0  0  0
   17.4930    4.8090    2.5150 F   0  0  0  0  0  0  0  0  0  0  0  0
   19.4246    5.4916    1.3694 C   0  0  0  0  0  0  0  0  0  0  0  0
   20.0367    5.8779    0.1746 C   0  0  0  0  0  0  0  0  0  0  0  0
   21.8024    6.2412    0.1908 S   0  0  0  0  0  0  0  0  0  0  0  0
   21.8268    7.5397    0.8557 O   0  0  0  0  0  0  0  0  0  0  0  0
   22.3435    5.1241    0.9587 O   0  0  0  0  0  0  0  0  0  0  0  0
   22.1594    6.2525   -1.2246 O   0  5  0  0  0  0  0  0  0  0  0  0
   19.3141    5.9627   -1.0148 C   0  0  0  0  0  0  0  0  0  0  0  0
   17.9554    5.6802   -0.9924 C   0  0  0  0  0  0  0  0  0  0  0  0
   17.2674    5.7725   -2.1417 F   0  0  0  0  0  0  0  0  0  0  0  0
   14.9964    5.7765    0.7485 C   0  0  0  0  0  0  0  0  0  0  0  0
   13.6128    5.7213    0.8518 N   0  0  0  0  0  0  0  0  0  0  0  0
   13.2554    6.7943    1.5242 C   0  0  0  0  0  0  0  0  0  0  0  0
   11.8698    7.2545    1.9013 C   0  0  0  0  0  0  0  0  0  0  0  0
   11.6365    8.4680    2.7269 C   0  0  0  0  0  0  0  0  0  0  0  0
   11.9246    9.7500    2.2376 C   0  0  0  0  0  0  0  0  0  0  0  0
   12.4154    9.8994    0.9977 F   0  0  0  0  0  0  0  0  0  0  0  0
   11.7427   10.8884    3.0180 C   0  0  0  0  0  0  0  0  0  0  0  0
   11.2349   10.7502    4.3109 C   0  0  0  0  0  0  0  0  0  0  0  0
   10.9988   12.2331    5.3146 S   0  0  0  0  0  0  0  0  0  0  0  0
   12.3747   12.5814    5.6494 O   0  0  0  0  0  0  0  0  0  0  0  0
   10.3210   13.1296    4.3834 O   0  0  0  0  0  0  0  0  0  0  0  0
   10.1790   11.7591    6.4258 O   0  5  0  0  0  0  0  0  0  0  0  0
   10.9012    9.4963    4.8191 C   0  0  0  0  0  0  0  0  0  0  0  0
   11.1181    8.3713    4.0290 C   0  0  0  0  0  0  0  0  0  0  0  0
   10.8012    7.1713    4.5404 F   0  0  0  0  0  0  0  0  0  0  0  0
   10.8362    6.5081    1.4736 C   0  0  0  0  0  0  0  0  0  0  0  0
    9.4197    6.7571    1.7196 C   0  0  0  0  0  0  0  0  0  0  0  0
    8.7077    5.7295    1.2247 C   0  0  0  0  0  0  0  0  0  0  0  0
    9.6277    4.7740    0.6037 C   0  0  0  0  0  0  0  0  0  0  0  0
   10.8589    5.3394    0.7539 N   0  0  0  0  0  0  0  0  0  0  0  0
   14.3746    7.6393    1.9494 C   0  0  0  0  0  0  0  0  0  0  0  0
   15.4062    6.9981    1.4175 C   0  0  0  0  0  0  0  0  0  0  0  0
   10.7197    0.8040   -1.6464 C   0  0  0  0  0  0  0  0  0  0  0  0
    9.6476    1.4397   -1.2083 C   0  0  0  0  0  0  0  0  0  0  0  0
    7.5397    2.2574    1.1102 C   0  0  0  0  0  0  0  0  0  0  0  0
    6.3928    1.5111    0.9667 C   0  0  0  0  0  0  0  0  0  0  0  0
   -0.2567    4.0663    2.7912 C   0  0  0  0  0  0  0  0  0  0  0  0
   -0.6585    2.8817    1.9346 C   0  0  0  0  0  0  0  0  0  0  0  0
   -0.6338    0.2716    0.1304 N   0  0  0  0  0  0  0  0  0  0  0  0
    1.3963   -2.1299   -1.0529 H   0  0  0  0  0  0  0  0  0  0  0  0
    1.9384   -0.7079   -0.1945 H   0  0  0  0  0  0  0  0  0  0  0  0
    1.2060   -0.5493   -1.7730 H   0  0  0  0  0  0  0  0  0  0  0  0
   -0.4950   -3.0522   -0.2165 H   0  0  0  0  0  0  0  0  0  0  0  0
   -2.7274   -2.8654    0.7285 H   0  0  0  0  0  0  0  0  0  0  0  0
   -3.6072   -0.6738    1.3042 H   0  0  0  0  0  0  0  0  0  0  0  0
   -3.5646    1.5857    1.0207 H   0  0  0  0  0  0  0  0  0  0  0  0
   -2.1916    2.2841    0.0158 H   0  0  0  0  0  0  0  0  0  0  0  0
   -2.6105    3.4972    1.7925 H   0  0  0  0  0  0  0  0  0  0  0  0
   -2.0171    1.4197    3.6611 H   0  0  0  0  0  0  0  0  0  0  0  0
   -3.5709    2.1704    3.3537 H   0  0  0  0  0  0  0  0  0  0  0  0
   -2.3672    3.1691    5.3197 H   0  0  0  0  0  0  0  0  0  0  0  0
   -2.7237    4.3336    4.0418 H   0  0  0  0  0  0  0  0  0  0  0  0
   -0.1655    3.0097    4.6682 H   0  0  0  0  0  0  0  0  0  0  0  0
   -0.6475    6.6863    5.8103 H   0  0  0  0  0  0  0  0  0  0  0  0
   -1.5423    5.9669    4.2597 H   0  0  0  0  0  0  0  0  0  0  0  0
    2.5190    8.3614    2.7312 H   0  0  0  0  0  0  0  0  0  0  0  0
    0.9123    9.1943    3.0101 H   0  0  0  0  0  0  0  0  0  0  0  0
    2.0618    8.1496    0.5268 H   0  0  0  0  0  0  0  0  0  0  0  0
    1.3005    9.7498    0.9770 H   0  0  0  0  0  0  0  0  0  0  0  0
   -1.1823    6.8502   -0.1581 H   0  0  0  0  0  0  0  0  0  0  0  0
   -0.4407    6.7680    1.4883 H   0  0  0  0  0  0  0  0  0  0  0  0
    0.8153    6.0120   -1.0894 H   0  0  0  0  0  0  0  0  0  0  0  0
    0.3715    4.9770    0.2866 H   0  0  0  0  0  0  0  0  0  0  0  0
    3.2653    4.5680    0.9109 H   0  0  0  0  0  0  0  0  0  0  0  0
    3.9119    5.9866   -0.0165 H   0  0  0  0  0  0  0  0  0  0  0  0
    3.8909    4.7095   -1.7492 H   0  0  0  0  0  0  0  0  0  0  0  0
    2.1187    4.9024   -1.6745 H   0  0  0  0  0  0  0  0  0  0  0  0
    1.0303    2.2694   -0.6660 H   0  0  0  0  0  0  0  0  0  0  0  0
    1.5810    3.5425    0.4630 H   0  0  0  0  0  0  0  0  0  0  0  0
    1.9066    0.6860    0.6115 H   0  0  0  0  0  0  0  0  0  0  0  0
    2.0302    1.9549    1.8535 H   0  0  0  0  0  0  0  0  0  0  0  0
    5.3272    2.7413   -1.9974 H   0  0  0  0  0  0  0  0  0  0  0  0
    7.3088    4.1275   -1.7032 H   0  0  0  0  0  0  0  0  0  0  0  0
   12.5871   -1.3443   -5.5861 H   0  0  0  0  0  0  0  0  0  0  0  0
   14.4870   -3.1928   -2.3081 H   0  0  0  0  0  0  0  0  0  0  0  0
   16.0045    0.9318   -2.2114 H   0  0  0  0  0  0  0  0  0  0  0  0
   17.4199    2.8205   -1.1021 H   0  0  0  0  0  0  0  0  0  0  0  0
   13.4298    3.6072   -0.3652 H   0  0  0  0  0  0  0  0  0  0  0  0
   19.9701    5.4369    2.2437 H   0  0  0  0  0  0  0  0  0  0  0  0
   19.7808    6.2305   -1.8954 H   0  0  0  0  0  0  0  0  0  0  0  0
   11.9799   11.8213    2.6459 H   0  0  0  0  0  0  0  0  0  0  0  0
   10.5000    9.4035    5.7654 H   0  0  0  0  0  0  0  0  0  0  0  0
    9.0288    7.5854    2.1951 H   0  0  0  0  0  0  0  0  0  0  0  0
    7.6817    5.6304    1.2743 H   0  0  0  0  0  0  0  0  0  0  0  0
   11.6827    4.9483    0.3830 H   0  0  0  0  0  0  0  0  0  0  0  0
   14.3630    8.5037    2.5130 H   0  0  0  0  0  0  0  0  0  0  0  0
   16.3826    7.3277    1.4724 H   0  0  0  0  0  0  0  0  0  0  0  0
   10.7077   -0.1125   -2.1206 H   0  0  0  0  0  0  0  0  0  0  0  0
    8.6556    1.1643   -1.2804 H   0  0  0  0  0  0  0  0  0  0  0  0
    8.1350    2.1503    1.9464 H   0  0  0  0  0  0  0  0  0  0  0  0
    6.1170    0.8261    1.6876 H   0  0  0  0  0  0  0  0  0  0  0  0
    0.8043    4.1934    2.7359 H   0  0  0  0  0  0  0  0  0  0  0  0
   -0.7598    4.9365    2.4245 H   0  0  0  0  0  0  0  0  0  0  0  0
   -0.3756    3.0749    0.9209 H   0  0  0  0  0  0  0  0  0  0  0  0
   -0.1613    2.0128    2.3123 H   0  0  0  0  0  0  0  0  0  0  0  0
  1  2  1  0  0  0  0
  1100  1  0  0  0  0
  1101  1  0  0  0  0
  1102  1  0  0  0  0
  2  3  1  0  0  0  0
  2 99  2  0  0  0  0
  3  4  2  0  0  0  0
  3103  1  0  0  0  0
  4  5  1  0  0  0  0
  4104  1  0  0  0  0
  5  6  2  0  0  0  0
  5105  1  0  0  0  0
  6  7  1  0  0  0  0
  6 99  1  0  0  0  0
  7  8  1  0  0  0  0
  7106  1  0  0  0  0
  7107  1  0  0  0  0
  8  9  1  0  0  0  0
  8 98  1  0  0  0  0
  8108  1  6  0  0  0
  9 10  1  0  0  0  0
  9109  1  0  0  0  0
  9110  1  0  0  0  0
 10 11  1  0  0  0  0
 10111  1  0  0  0  0
 10112  1  0  0  0  0
 11 12  1  0  0  0  0
 11 97  1  0  0  0  0
 11113  1  1  0  0  0
 12 13  1  0  0  0  0
 13 14  1  0  0  0  0
 13114  1  0  0  0  0
 13115  1  0  0  0  0
 14 15  2  0  0  0  0
 14 16  1  0  0  0  0
 16 17  1  0  0  0  0
 17 18  1  0  0  0  0
 17116  1  0  0  0  0
 17117  1  0  0  0  0
 18 19  1  0  0  0  0
 18118  1  0  0  0  0
 18119  1  0  0  0  0
 19 20  1  0  0  0  0
 20 21  1  0  0  0  0
 20120  1  0  0  0  0
 20121  1  0  0  0  0
 21 22  1  0  0  0  0
 21122  1  0  0  0  0
 21123  1  0  0  0  0
 22 23  1  0  0  0  0
 23 24  1  0  0  0  0
 23124  1  0  0  0  0
 23125  1  0  0  0  0
 24 25  1  0  0  0  0
 24126  1  0  0  0  0
 24127  1  0  0  0  0
 25 26  1  0  0  0  0
 26 27  1  0  0  0  0
 26128  1  0  0  0  0
 26129  1  0  0  0  0
 27 28  1  0  0  0  0
 27130  1  0  0  0  0
 27131  1  0  0  0  0
 28 29  1  0  0  0  0
 29 30  2  0  0  0  0
 29 31  1  0  0  0  0
 31 32  1  0  0  0  0
 31 96  2  0  0  0  0
 32 33  2  0  0  0  0
 32132  1  0  0  0  0
 33 34  1  0  0  0  0
 33133  1  0  0  0  0
 34 35  1  0  0  0  0
 34 95  2  0  0  0  0
 35 36  1  0  0  0  0
 35 89  2  0  0  0  0
 36 37  2  0  0  0  0
 36 94  1  0  0  0  0
 37 38  1  0  0  0  0
 38 39  2  0  0  0  0
 38 93  1  0  0  0  0
 39 40  1  0  0  0  0
 39 52  1  0  0  0  0
 40 41  1  0  0  0  0
 40 50  2  0  0  0  0
 41 42  1  0  0  0  0
 41 43  2  0  0  0  0
 43 44  1  0  0  0  0
 43134  1  0  0  0  0
 44 45  1  0  0  0  0
 44 49  2  0  0  0  0
 45 46  2  0  0  0  0
 45 47  2  0  0  0  0
 45 48  1  0  0  0  0
 49 50  1  0  0  0  0
 49135  1  0  0  0  0
 50 51  1  0  0  0  0
 52 53  2  0  0  0  0
 52 56  1  0  0  0  0
 53 54  1  0  0  0  0
 53136  1  0  0  0  0
 54 55  2  0  0  0  0
 54137  1  0  0  0  0
 55 56  1  0  0  0  0
 55 57  1  0  0  0  0
 56138  1  0  0  0  0
 57 58  1  0  0  0  0
 57 70  2  0  0  0  0
 58 59  1  0  0  0  0
 58 68  2  0  0  0  0
 59 60  1  0  0  0  0
 59 61  2  0  0  0  0
 61 62  1  0  0  0  0
 61139  1  0  0  0  0
 62 63  1  0  0  0  0
 62 67  2  0  0  0  0
 63 64  2  0  0  0  0
 63 65  2  0  0  0  0
 63 66  1  0  0  0  0
 67 68  1  0  0  0  0
 67140  1  0  0  0  0
 68 69  1  0  0  0  0
 70 71  1  0  0  0  0
 70 92  1  0  0  0  0
 71 72  2  0  0  0  0
 72 73  1  0  0  0  0
 72 91  1  0  0  0  0
 73 74  1  0  0  0  0
 73 86  2  0  0  0  0
 74 75  1  0  0  0  0
 74 84  2  0  0  0  0
 75 76  1  0  0  0  0
 75 77  2  0  0  0  0
 77 78  1  0  0  0  0
 77141  1  0  0  0  0
 78 79  1  0  0  0  0
 78 83  2  0  0  0  0
 79 80  2  0  0  0  0
 79 81  2  0  0  0  0
 79 82  1  0  0  0  0
 83 84  1  0  0  0  0
 83142  1  0  0  0  0
 84 85  1  0  0  0  0
 86 87  1  0  0  0  0
 86 90  1  0  0  0  0
 87 88  2  0  0  0  0
 87143  1  0  0  0  0
 88 89  1  0  0  0  0
 88144  1  0  0  0  0
 89 90  1  0  0  0  0
 90145  1  0  0  0  0
 91 92  2  0  0  0  0
 91146  1  0  0  0  0
 92147  1  0  0  0  0
 93 94  2  0  0  0  0
 93148  1  0  0  0  0
 94149  1  0  0  0  0
 95 96  1  0  0  0  0
 95150  1  0  0  0  0
 96151  1  0  0  0  0
 97 98  1  0  0  0  0
 97152  1  0  0  0  0
 97153  1  0  0  0  0
 98154  1  0  0  0  0
 98155  1  0  0  0  0
M  CHG  4   8   1  48  -1  66  -1  82  -1
M  END
$$$$
