5_0_354
 OpenBabel04152301373D

144154  0  0  0  0  0  0  0  0999 V2000
    0.9028   -0.1781    0.0251 C   0  0  0  0  0  0  0  0  0  0  0  0
    0.4030    0.9210   -0.9211 C   0  0  1  0  0  0  0  0  0  0  0  0
    0.9706    0.7962   -2.3438 C   0  0  0  0  0  0  0  0  0  0  0  0
    0.2843    0.4857   -3.3198 O   0  0  0  0  0  0  0  0  0  0  0  0
    2.2808    1.0897   -2.5783 N   0  0  0  0  0  0  0  0  0  0  0  0
    3.3728    1.2477   -1.6412 C   0  0  0  0  0  0  0  0  0  0  0  0
    4.1863   -0.0466   -1.5671 C   0  0  0  0  0  0  0  0  0  0  0  0
    4.9417   -0.3700   -2.8639 C   0  0  0  0  0  0  0  0  0  0  0  0
    5.9148    0.7193   -3.3254 C   0  0  0  0  0  0  0  0  0  0  0  0
    6.9522    1.1307   -2.2783 C   0  0  0  0  0  0  0  0  0  0  0  0
    7.8532   -0.0072   -1.8114 C   0  0  0  0  0  0  0  0  0  0  0  0
    8.6709   -0.5238   -2.8970 N   0  0  0  0  0  0  0  0  0  0  0  0
   10.0343   -0.6517   -2.9655 C   0  0  0  0  0  0  0  0  0  0  0  0
   10.5714   -0.8814   -4.0486 O   0  0  0  0  0  0  0  0  0  0  0  0
   10.8504   -0.4923   -1.7437 C   0  0  0  0  0  0  0  0  0  0  0  0
   12.0303    0.2513   -1.8082 C   0  0  0  0  0  0  0  0  0  0  0  0
   12.7845    0.4513   -0.6503 C   0  0  0  0  0  0  0  0  0  0  0  0
   12.3415   -0.0504    0.5851 C   0  0  0  0  0  0  0  0  0  0  0  0
   13.1039    0.2058    1.8355 C   0  0  0  0  0  0  0  0  0  0  0  0
   13.7034   -0.9418    2.6030 C   0  0  0  0  0  0  0  0  0  0  0  0
   14.3497   -0.9286    3.7406 N   0  0  0  0  0  0  0  0  0  0  0  0
   14.6488   -2.2574    4.0232 C   0  0  0  0  0  0  0  0  0  0  0  0
   15.3726   -2.7642    5.0522 C   0  0  0  0  0  0  0  0  0  0  0  0
   15.5360   -4.2652    5.1184 C   0  0  0  0  0  0  0  0  0  0  0  0
   16.1934   -4.9845    4.1044 C   0  0  0  0  0  0  0  0  0  0  0  0
   16.2432   -6.3858    4.1573 C   0  0  0  0  0  0  0  0  0  0  0  0
   16.8322   -7.2870    2.6976 S   0  0  0  0  0  0  0  0  0  0  0  0
   15.9013   -6.8242    1.6708 O   0  0  0  0  0  0  0  0  0  0  0  0
   18.2073   -6.8191    2.5714 O   0  0  0  0  0  0  0  0  0  0  0  0
   16.6815   -8.6902    3.0773 O   0  5  0  0  0  0  0  0  0  0  0  0
   15.7468   -7.0864    5.2584 C   0  0  0  0  0  0  0  0  0  0  0  0
   15.1416   -6.3791    6.2927 C   0  0  0  0  0  0  0  0  0  0  0  0
   15.0120   -4.9916    6.2027 C   0  0  0  0  0  0  0  0  0  0  0  0
   14.3533   -4.3655    7.1908 F   0  0  0  0  0  0  0  0  0  0  0  0
   15.9655   -1.9540    6.0889 C   0  0  0  0  0  0  0  0  0  0  0  0
   16.7601   -2.3573    7.1481 C   0  0  0  0  0  0  0  0  0  0  0  0
   17.0294   -1.2404    7.9456 C   0  0  0  0  0  0  0  0  0  0  0  0
   16.4823   -0.1221    7.3370 C   0  0  0  0  0  0  0  0  0  0  0  0
   15.8222   -0.5766    6.2049 N   0  0  0  0  0  0  0  0  0  0  0  0
   16.5677    1.2588    7.7535 C   0  0  0  0  0  0  0  0  0  0  0  0
   17.3848    1.5850    8.9816 C   0  0  0  0  0  0  0  0  0  0  0  0
   16.8041    2.1405   10.1351 C   0  0  0  0  0  0  0  0  0  0  0  0
   17.6146    2.4966   11.2239 C   0  0  0  0  0  0  0  0  0  0  0  0
   16.8692    3.4120   12.6010 S   0  0  0  0  0  0  0  0  0  0  0  0
   16.3293    4.5878   11.9260 O   0  0  0  0  0  0  0  0  0  0  0  0
   15.8857    2.4624   13.1112 O   0  0  0  0  0  0  0  0  0  0  0  0
   17.9990    3.6722   13.4915 O   0  5  0  0  0  0  0  0  0  0  0  0
   18.9861    2.2303   11.2230 C   0  0  0  0  0  0  0  0  0  0  0  0
   19.5614    1.6375   10.1032 C   0  0  0  0  0  0  0  0  0  0  0  0
   18.7712    1.3463    8.9906 C   0  0  0  0  0  0  0  0  0  0  0  0
   19.3818    0.8214    7.9160 F   0  0  0  0  0  0  0  0  0  0  0  0
   16.0070    2.3018    7.0887 C   0  0  0  0  0  0  0  0  0  0  0  0
   15.2537    2.2973    5.9174 N   0  0  0  0  0  0  0  0  0  0  0  0
   14.9368    3.5519    5.6914 C   0  0  0  0  0  0  0  0  0  0  0  0
   14.1617    4.1427    4.5401 C   0  0  0  0  0  0  0  0  0  0  0  0
   13.8736    5.6058    4.4851 C   0  0  0  0  0  0  0  0  0  0  0  0
   14.9111    6.5467    4.3886 C   0  0  0  0  0  0  0  0  0  0  0  0
   14.6187    7.9188    4.4368 C   0  0  0  0  0  0  0  0  0  0  0  0
   15.9953    9.0982    4.5056 S   0  0  0  0  0  0  0  0  0  0  0  0
   16.7040    8.6564    5.7010 O   0  0  0  0  0  0  0  0  0  0  0  0
   16.6665    8.8540    3.2333 O   0  0  0  0  0  0  0  0  0  0  0  0
   15.3274   10.3932    4.6174 O   0  5  0  0  0  0  0  0  0  0  0  0
   13.3018    8.3782    4.5068 C   0  0  0  0  0  0  0  0  0  0  0  0
   12.2647    7.4529    4.5613 C   0  0  0  0  0  0  0  0  0  0  0  0
   12.5551    6.0877    4.5751 C   0  0  0  0  0  0  0  0  0  0  0  0
   11.5237    5.2327    4.6668 F   0  0  0  0  0  0  0  0  0  0  0  0
   13.7211    3.3220    3.5655 C   0  0  0  0  0  0  0  0  0  0  0  0
   12.9661    3.7388    2.3881 C   0  0  0  0  0  0  0  0  0  0  0  0
   12.6422    2.6545    1.6663 C   0  0  0  0  0  0  0  0  0  0  0  0
   13.2131    1.4653    2.3033 C   0  0  0  0  0  0  0  0  0  0  0  0
   13.8355    1.9580    3.4230 N   0  0  0  0  0  0  0  0  0  0  0  0
   15.4237    4.4887    6.7115 C   0  0  0  0  0  0  0  0  0  0  0  0
   16.1092    3.6839    7.5095 C   0  0  0  0  0  0  0  0  0  0  0  0
   14.0540   -3.0526    2.9702 C   0  0  0  0  0  0  0  0  0  0  0  0
   13.5270   -2.2844    2.0290 C   0  0  0  0  0  0  0  0  0  0  0  0
   11.1644   -0.8123    0.6297 C   0  0  0  0  0  0  0  0  0  0  0  0
   10.4539   -1.0786   -0.5374 C   0  0  0  0  0  0  0  0  0  0  0  0
   -1.1216    0.9781   -0.9459 C   0  0  0  0  0  0  0  0  0  0  0  0
   -1.7689    2.2115   -1.0634 C   0  0  0  0  0  0  0  0  0  0  0  0
   -3.1626    2.2793   -1.0767 C   0  0  0  0  0  0  0  0  0  0  0  0
   -3.9534    1.1233   -0.9392 C   0  0  0  0  0  0  0  0  0  0  0  0
   -5.4524    1.2884   -0.8288 C   0  0  0  0  0  0  0  0  0  0  0  0
   -5.9743    1.8122    0.5178 C   0  0  1  0  0  0  0  0  0  0  0  0
   -5.4804    1.1095    1.7863 C   0  0  0  0  0  0  0  0  0  0  0  0
   -4.3340    1.9533    2.3322 C   0  0  0  0  0  0  0  0  0  0  0  0
   -4.6764    3.3933    1.9790 C   0  0  0  0  0  0  0  0  0  0  0  0
   -5.5644    3.2443    0.7727 C   0  0  0  0  0  0  0  0  0  0  0  0
   -5.9247    4.1880    0.0778 O   0  0  0  0  0  0  0  0  0  0  0  0
   -3.3017   -0.1174   -0.8900 C   0  0  0  0  0  0  0  0  0  0  0  0
   -4.2267   -1.7759   -0.7933 Br  0  0  0  0  0  0  0  0  0  0  0  0
   -1.9051   -0.1850   -0.9070 C   0  0  0  0  0  0  0  0  0  0  0  0
    1.9727   -0.1931    0.0207 H   0  0  0  0  0  0  0  0  0  0  0  0
    0.5314   -1.1267   -0.3024 H   0  0  0  0  0  0  0  0  0  0  0  0
    0.5529    0.0188    1.0169 H   0  0  0  0  0  0  0  0  0  0  0  0
    0.7722    1.8444   -0.5262 H   0  0  0  0  0  0  0  0  0  0  0  0
    2.5200    1.2124   -3.5254 H   0  0  0  0  0  0  0  0  0  0  0  0
    2.9791    1.4754   -0.6726 H   0  0  0  0  0  0  0  0  0  0  0  0
    4.0070    2.0443   -1.9700 H   0  0  0  0  0  0  0  0  0  0  0  0
    3.5183   -0.8548   -1.3537 H   0  0  0  0  0  0  0  0  0  0  0  0
    4.9203    0.0864   -0.8000 H   0  0  0  0  0  0  0  0  0  0  0  0
    4.2213   -0.5241   -3.6399 H   0  0  0  0  0  0  0  0  0  0  0  0
    5.5334   -1.2381   -2.6610 H   0  0  0  0  0  0  0  0  0  0  0  0
    5.3452    1.5857   -3.5896 H   0  0  0  0  0  0  0  0  0  0  0  0
    6.4609    0.3094   -4.1492 H   0  0  0  0  0  0  0  0  0  0  0  0
    6.4338    1.5194   -1.4268 H   0  0  0  0  0  0  0  0  0  0  0  0
    7.5876    1.8555   -2.7428 H   0  0  0  0  0  0  0  0  0  0  0  0
    7.2429   -0.7988   -1.4296 H   0  0  0  0  0  0  0  0  0  0  0  0
    8.5056    0.3727   -1.0532 H   0  0  0  0  0  0  0  0  0  0  0  0
    8.1767   -0.8235   -3.6940 H   0  0  0  0  0  0  0  0  0  0  0  0
   12.3433    0.6509   -2.7067 H   0  0  0  0  0  0  0  0  0  0  0  0
   13.6742    0.9716   -0.7023 H   0  0  0  0  0  0  0  0  0  0  0  0
   16.6393   -4.4816    3.3212 H   0  0  0  0  0  0  0  0  0  0  0  0
   15.8276   -8.1142    5.3045 H   0  0  0  0  0  0  0  0  0  0  0  0
   14.7894   -6.8787    7.1242 H   0  0  0  0  0  0  0  0  0  0  0  0
   17.0963   -3.3178    7.3199 H   0  0  0  0  0  0  0  0  0  0  0  0
   17.5484   -1.2478    8.8376 H   0  0  0  0  0  0  0  0  0  0  0  0
   15.3246   -0.0064    5.5752 H   0  0  0  0  0  0  0  0  0  0  0  0
   15.7835    2.2862   10.1811 H   0  0  0  0  0  0  0  0  0  0  0  0
   19.5654    2.4703   12.0427 H   0  0  0  0  0  0  0  0  0  0  0  0
   20.5689    1.4140   10.0956 H   0  0  0  0  0  0  0  0  0  0  0  0
   15.8875    6.2300    4.2824 H   0  0  0  0  0  0  0  0  0  0  0  0
   13.1008    9.3904    4.5179 H   0  0  0  0  0  0  0  0  0  0  0  0
   11.2845    7.7744    4.5914 H   0  0  0  0  0  0  0  0  0  0  0  0
   12.7204    4.7121    2.1487 H   0  0  0  0  0  0  0  0  0  0  0  0
   12.0805    2.6580    0.8006 H   0  0  0  0  0  0  0  0  0  0  0  0
   14.3188    1.3886    4.0645 H   0  0  0  0  0  0  0  0  0  0  0  0
   15.2718    5.5067    6.7870 H   0  0  0  0  0  0  0  0  0  0  0  0
   16.6491    4.0022    8.3294 H   0  0  0  0  0  0  0  0  0  0  0  0
   14.0421   -4.0844    2.9549 H   0  0  0  0  0  0  0  0  0  0  0  0
   13.1033   -2.5566    1.1282 H   0  0  0  0  0  0  0  0  0  0  0  0
   10.8233   -1.1774    1.5327 H   0  0  0  0  0  0  0  0  0  0  0  0
    9.6361   -1.7075   -0.5126 H   0  0  0  0  0  0  0  0  0  0  0  0
   -1.2126    3.0773   -1.1408 H   0  0  0  0  0  0  0  0  0  0  0  0
   -3.6229    3.1960   -1.1897 H   0  0  0  0  0  0  0  0  0  0  0  0
   -5.9009    0.3330   -1.0046 H   0  0  0  0  0  0  0  0  0  0  0  0
   -5.7146    2.0342   -1.5499 H   0  0  0  0  0  0  0  0  0  0  0  0
   -7.0227    1.6460    0.3828 H   0  0  0  0  0  0  0  0  0  0  0  0
   -5.1349    0.1243    1.5521 H   0  0  0  0  0  0  0  0  0  0  0  0
   -6.2665    1.0140    2.5059 H   0  0  0  0  0  0  0  0  0  0  0  0
   -3.4098    1.6670    1.8753 H   0  0  0  0  0  0  0  0  0  0  0  0
   -4.2165    1.8234    3.3878 H   0  0  0  0  0  0  0  0  0  0  0  0
   -3.7947    3.9509    1.7410 H   0  0  0  0  0  0  0  0  0  0  0  0
   -5.1421    3.9251    2.7822 H   0  0  0  0  0  0  0  0  0  0  0  0
   -1.4423   -1.1073   -0.8906 H   0  0  0  0  0  0  0  0  0  0  0  0
  1  2  1  0  0  0  0
  1 92  1  0  0  0  0
  1 93  1  0  0  0  0
  1 94  1  0  0  0  0
  2  3  1  0  0  0  0
  2 78  1  0  0  0  0
  2 95  1  1  0  0  0
  3  4  2  0  0  0  0
  3  5  1  0  0  0  0
  5  6  1  0  0  0  0
  5 96  1  0  0  0  0
  6  7  1  0  0  0  0
  6 97  1  0  0  0  0
  6 98  1  0  0  0  0
  7  8  1  0  0  0  0
  7 99  1  0  0  0  0
  7100  1  0  0  0  0
  8  9  1  0  0  0  0
  8101  1  0  0  0  0
  8102  1  0  0  0  0
  9 10  1  0  0  0  0
  9103  1  0  0  0  0
  9104  1  0  0  0  0
 10 11  1  0  0  0  0
 10105  1  0  0  0  0
 10106  1  0  0  0  0
 11 12  1  0  0  0  0
 11107  1  0  0  0  0
 11108  1  0  0  0  0
 12 13  1  0  0  0  0
 12109  1  0  0  0  0
 13 14  2  0  0  0  0
 13 15  1  0  0  0  0
 15 16  1  0  0  0  0
 15 77  2  0  0  0  0
 16 17  2  0  0  0  0
 16110  1  0  0  0  0
 17 18  1  0  0  0  0
 17111  1  0  0  0  0
 18 19  1  0  0  0  0
 18 76  2  0  0  0  0
 19 20  1  0  0  0  0
 19 70  2  0  0  0  0
 20 21  2  0  0  0  0
 20 75  1  0  0  0  0
 21 22  1  0  0  0  0
 22 23  2  0  0  0  0
 22 74  1  0  0  0  0
 23 24  1  0  0  0  0
 23 35  1  0  0  0  0
 24 25  1  0  0  0  0
 24 33  2  0  0  0  0
 25 26  2  0  0  0  0
 25112  1  0  0  0  0
 26 27  1  0  0  0  0
 26 31  1  0  0  0  0
 27 28  2  0  0  0  0
 27 29  2  0  0  0  0
 27 30  1  0  0  0  0
 31 32  2  0  0  0  0
 31113  1  0  0  0  0
 32 33  1  0  0  0  0
 32114  1  0  0  0  0
 33 34  1  0  0  0  0
 35 36  2  0  0  0  0
 35 39  1  0  0  0  0
 36 37  1  0  0  0  0
 36115  1  0  0  0  0
 37 38  2  0  0  0  0
 37116  1  0  0  0  0
 38 39  1  0  0  0  0
 38 40  1  0  0  0  0
 39117  1  0  0  0  0
 40 41  1  0  0  0  0
 40 52  2  0  0  0  0
 41 42  1  0  0  0  0
 41 50  2  0  0  0  0
 42 43  2  0  0  0  0
 42118  1  0  0  0  0
 43 44  1  0  0  0  0
 43 48  1  0  0  0  0
 44 45  2  0  0  0  0
 44 46  2  0  0  0  0
 44 47  1  0  0  0  0
 48 49  2  0  0  0  0
 48119  1  0  0  0  0
 49 50  1  0  0  0  0
 49120  1  0  0  0  0
 50 51  1  0  0  0  0
 52 53  1  0  0  0  0
 52 73  1  0  0  0  0
 53 54  2  0  0  0  0
 54 55  1  0  0  0  0
 54 72  1  0  0  0  0
 55 56  1  0  0  0  0
 55 67  2  0  0  0  0
 56 57  1  0  0  0  0
 56 65  2  0  0  0  0
 57 58  2  0  0  0  0
 57121  1  0  0  0  0
 58 59  1  0  0  0  0
 58 63  1  0  0  0  0
 59 60  2  0  0  0  0
 59 61  2  0  0  0  0
 59 62  1  0  0  0  0
 63 64  2  0  0  0  0
 63122  1  0  0  0  0
 64 65  1  0  0  0  0
 64123  1  0  0  0  0
 65 66  1  0  0  0  0
 67 68  1  0  0  0  0
 67 71  1  0  0  0  0
 68 69  2  0  0  0  0
 68124  1  0  0  0  0
 69 70  1  0  0  0  0
 69125  1  0  0  0  0
 70 71  1  0  0  0  0
 71126  1  0  0  0  0
 72 73  2  0  0  0  0
 72127  1  0  0  0  0
 73128  1  0  0  0  0
 74 75  2  0  0  0  0
 74129  1  0  0  0  0
 75130  1  0  0  0  0
 76 77  1  0  0  0  0
 76131  1  0  0  0  0
 77132  1  0  0  0  0
 78 79  1  0  0  0  0
 78 91  2  0  0  0  0
 79 80  2  0  0  0  0
 79133  1  0  0  0  0
 80 81  1  0  0  0  0
 80134  1  0  0  0  0
 81 82  1  0  0  0  0
 81 89  2  0  0  0  0
 82 83  1  0  0  0  0
 82135  1  0  0  0  0
 82136  1  0  0  0  0
 83 84  1  0  0  0  0
 83 87  1  0  0  0  0
 83137  1  6  0  0  0
 84 85  1  0  0  0  0
 84138  1  0  0  0  0
 84139  1  0  0  0  0
 85 86  1  0  0  0  0
 85140  1  0  0  0  0
 85141  1  0  0  0  0
 86 87  1  0  0  0  0
 86142  1  0  0  0  0
 86143  1  0  0  0  0
 87 88  2  0  0  0  0
 89 90  1  0  0  0  0
 89 91  1  0  0  0  0
 91144  1  0  0  0  0
M  CHG  3  30  -1  47  -1  62  -1
M  END
$$$$
