5_0_497
 OpenBabel04152301363D

145155  0  0  0  0  0  0  0  0999 V2000
    1.7441   -1.5319   -0.9559 O   0  0  0  0  0  0  0  0  0  0  0  0
    2.4397   -0.7064   -0.3714 C   0  0  0  0  0  0  0  0  0  0  0  0
    2.9260    0.5815   -1.0483 C   0  0  0  0  0  0  0  0  0  0  0  0
    3.6453    1.4347   -0.1540 O   0  0  0  0  0  0  0  0  0  0  0  0
    3.0542    2.6146    0.2005 C   0  0  0  0  0  0  0  0  0  0  0  0
    3.8434    3.7494   -0.0154 C   0  0  0  0  0  0  0  0  0  0  0  0
    3.4584    5.0096    0.4744 C   0  0  0  0  0  0  0  0  0  0  0  0
    2.2842    5.1602    1.2208 C   0  0  0  0  0  0  0  0  0  0  0  0
    1.8392    6.4173    1.8394 C   0  0  0  0  0  0  0  0  0  0  0  0
    2.6029    7.4903    2.0940 C   0  0  0  0  0  0  0  0  0  0  0  0
    2.0725    8.6929    2.7921 C   0  0  0  0  0  0  0  0  0  0  0  0
    2.4894    9.8067    2.4898 O   0  0  0  0  0  0  0  0  0  0  0  0
    1.0261    8.5540    3.8289 C   0  0  0  0  0  0  0  0  0  0  0  0
   -0.0434    9.4590    3.8295 C   0  0  0  0  0  0  0  0  0  0  0  0
   -1.0516    9.3378    4.7885 C   0  0  0  0  0  0  0  0  0  0  0  0
   -0.9760    8.3287    5.7457 C   0  0  0  0  0  0  0  0  0  0  0  0
   -1.9488    8.2164    6.6584 F   0  0  0  0  0  0  0  0  0  0  0  0
    0.0923    7.4419    5.7720 C   0  0  0  0  0  0  0  0  0  0  0  0
    1.0945    7.5647    4.8150 C   0  0  0  0  0  0  0  0  0  0  0  0
    2.1310    6.7162    4.8664 F   0  0  0  0  0  0  0  0  0  0  0  0
    1.4771    4.0368    1.4159 C   0  0  0  0  0  0  0  0  0  0  0  0
    1.8666    2.7872    0.9120 C   0  0  0  0  0  0  0  0  0  0  0  0
    0.9868    1.6960    1.2406 N   0  3  0  0  0  0  0  0  0  0  0  0
    1.0100    1.2914    2.4095 O   0  0  0  0  0  0  0  0  0  0  0  0
    0.2230    1.3115    0.3474 O   0  5  0  0  0  0  0  0  0  0  0  0
    2.8252   -0.8168    0.9470 N   0  0  0  0  0  0  0  0  0  0  0  0
    2.1953   -1.7233    1.8809 C   0  0  0  0  0  0  0  0  0  0  0  0
    2.9298   -3.0471    2.0407 C   0  0  0  0  0  0  0  0  0  0  0  0
    4.4010   -2.9344    2.4530 C   0  0  0  0  0  0  0  0  0  0  0  0
    4.7011   -2.0827    3.6902 C   0  0  0  0  0  0  0  0  0  0  0  0
    3.9551   -2.4581    4.9729 C   0  0  0  0  0  0  0  0  0  0  0  0
    4.0757   -3.9133    5.4162 C   0  0  0  0  0  0  0  0  0  0  0  0
    5.4470   -4.3203    5.6632 N   0  0  0  0  0  0  0  0  0  0  0  0
    5.9667   -5.0792    6.6840 C   0  0  0  0  0  0  0  0  0  0  0  0
    7.1853   -5.2078    6.7728 O   0  0  0  0  0  0  0  0  0  0  0  0
    5.0788   -5.7105    7.6908 C   0  0  0  0  0  0  0  0  0  0  0  0
    5.4706   -5.6868    9.0336 C   0  0  0  0  0  0  0  0  0  0  0  0
    4.6491   -6.2521   10.0137 C   0  0  0  0  0  0  0  0  0  0  0  0
    3.4149   -6.8220    9.6651 C   0  0  0  0  0  0  0  0  0  0  0  0
    2.5170   -7.4025   10.6990 C   0  0  0  0  0  0  0  0  0  0  0  0
    2.2491   -8.8835   10.7184 C   0  0  0  0  0  0  0  0  0  0  0  0
    1.4378   -9.5706   11.4817 N   0  0  0  0  0  0  0  0  0  0  0  0
    1.5465  -10.8918   11.0598 C   0  0  0  0  0  0  0  0  0  0  0  0
    0.9597  -12.0018   11.5750 C   0  0  0  0  0  0  0  0  0  0  0  0
    1.2719  -13.3177   10.9041 C   0  0  0  0  0  0  0  0  0  0  0  0
    2.5756  -13.8452   10.8987 C   0  0  0  0  0  0  0  0  0  0  0  0
    2.8581  -15.0085   10.1678 C   0  0  0  0  0  0  0  0  0  0  0  0
    4.5914  -15.4983    9.9562 S   0  0  0  0  0  0  0  0  0  0  0  0
    5.1369  -14.3455    9.2435 O   0  0  0  0  0  0  0  0  0  0  0  0
    5.0422  -15.6710   11.3322 O   0  0  0  0  0  0  0  0  0  0  0  0
    4.5068  -16.7264    9.1685 O   0  5  0  0  0  0  0  0  0  0  0  0
    1.8449  -15.7220    9.5240 C   0  0  0  0  0  0  0  0  0  0  0  0
    0.5409  -15.2369    9.5711 C   0  0  0  0  0  0  0  0  0  0  0  0
    0.2691  -14.0355   10.2296 C   0  0  0  0  0  0  0  0  0  0  0  0
   -0.9902  -13.5727   10.1842 F   0  0  0  0  0  0  0  0  0  0  0  0
    0.0548  -11.9866   12.6990 C   0  0  0  0  0  0  0  0  0  0  0  0
   -0.5949  -13.0500   13.3030 C   0  0  0  0  0  0  0  0  0  0  0  0
   -1.3979  -12.5489   14.3350 C   0  0  0  0  0  0  0  0  0  0  0  0
   -1.2035  -11.1798   14.4155 C   0  0  0  0  0  0  0  0  0  0  0  0
   -0.3264  -10.8460   13.3946 N   0  0  0  0  0  0  0  0  0  0  0  0
   -1.7623  -10.2481   15.3651 C   0  0  0  0  0  0  0  0  0  0  0  0
   -2.5937  -10.7928   16.4991 C   0  0  0  0  0  0  0  0  0  0  0  0
   -3.9695  -10.5250   16.6053 C   0  0  0  0  0  0  0  0  0  0  0  0
   -4.6845  -10.9800   17.7235 C   0  0  0  0  0  0  0  0  0  0  0  0
   -6.4122  -10.4637   17.9227 S   0  0  0  0  0  0  0  0  0  0  0  0
   -6.3009   -9.0088   17.8989 O   0  0  0  0  0  0  0  0  0  0  0  0
   -7.0545  -11.0729   16.7626 O   0  0  0  0  0  0  0  0  0  0  0  0
   -6.7947  -11.0350   19.2128 O   0  5  0  0  0  0  0  0  0  0  0  0
   -4.0691  -11.7574   18.7085 C   0  0  0  0  0  0  0  0  0  0  0  0
   -2.7164  -12.0633   18.5866 C   0  0  0  0  0  0  0  0  0  0  0  0
   -1.9890  -11.5691   17.5033 C   0  0  0  0  0  0  0  0  0  0  0  0
   -0.6780  -11.8540   17.4499 F   0  0  0  0  0  0  0  0  0  0  0  0
   -1.5562   -8.9068   15.3456 C   0  0  0  0  0  0  0  0  0  0  0  0
   -0.7959   -8.1456   14.4622 N   0  0  0  0  0  0  0  0  0  0  0  0
   -0.9256   -6.9012   14.8612 C   0  0  0  0  0  0  0  0  0  0  0  0
   -0.2897   -5.6542   14.3007 C   0  0  0  0  0  0  0  0  0  0  0  0
   -0.6346   -4.3146   14.8550 C   0  0  0  0  0  0  0  0  0  0  0  0
   -0.2944   -3.9659   16.1714 C   0  0  0  0  0  0  0  0  0  0  0  0
   -0.7257   -2.7413   16.7041 C   0  0  0  0  0  0  0  0  0  0  0  0
   -0.4219   -2.4039   18.4603 S   0  0  0  0  0  0  0  0  0  0  0  0
   -1.0367   -3.5625   19.0980 O   0  0  0  0  0  0  0  0  0  0  0  0
    1.0352   -2.3432   18.5071 O   0  0  0  0  0  0  0  0  0  0  0  0
   -1.1047   -1.1315   18.6849 O   0  5  0  0  0  0  0  0  0  0  0  0
   -1.4394   -1.8246   15.9288 C   0  0  0  0  0  0  0  0  0  0  0  0
   -1.7429   -2.1450   14.6089 C   0  0  0  0  0  0  0  0  0  0  0  0
   -1.3593   -3.3832   14.0911 C   0  0  0  0  0  0  0  0  0  0  0  0
   -1.7016   -3.6641   12.8236 F   0  0  0  0  0  0  0  0  0  0  0  0
    0.5906   -5.7691   13.2866 C   0  0  0  0  0  0  0  0  0  0  0  0
    1.3021   -4.6623   12.6542 C   0  0  0  0  0  0  0  0  0  0  0  0
    2.0558   -5.1394   11.6499 C   0  0  0  0  0  0  0  0  0  0  0  0
    1.9061   -6.5949   11.5880 C   0  0  0  0  0  0  0  0  0  0  0  0
    1.0268   -6.8804   12.6028 N   0  0  0  0  0  0  0  0  0  0  0  0
   -1.8092   -6.7300   16.0218 C   0  0  0  0  0  0  0  0  0  0  0  0
   -2.1276   -7.9842   16.3045 C   0  0  0  0  0  0  0  0  0  0  0  0
    2.4583  -10.8957    9.9343 C   0  0  0  0  0  0  0  0  0  0  0  0
    2.9727   -9.6929    9.7271 C   0  0  0  0  0  0  0  0  0  0  0  0
    3.0426   -6.8619    8.3125 C   0  0  0  0  0  0  0  0  0  0  0  0
    3.8897   -6.3500    7.3282 C   0  0  0  0  0  0  0  0  0  0  0  0
    2.0765    1.1144   -1.4215 H   0  0  0  0  0  0  0  0  0  0  0  0
    3.5934    0.3014   -1.8363 H   0  0  0  0  0  0  0  0  0  0  0  0
    4.7250    3.6597   -0.5443 H   0  0  0  0  0  0  0  0  0  0  0  0
    4.0488    5.8337    0.2812 H   0  0  0  0  0  0  0  0  0  0  0  0
    0.8435    6.4804    2.1032 H   0  0  0  0  0  0  0  0  0  0  0  0
    3.5909    7.4816    1.7959 H   0  0  0  0  0  0  0  0  0  0  0  0
   -0.0861   10.2116    3.1247 H   0  0  0  0  0  0  0  0  0  0  0  0
   -1.8490    9.9929    4.7879 H   0  0  0  0  0  0  0  0  0  0  0  0
    0.1420    6.7029    6.4906 H   0  0  0  0  0  0  0  0  0  0  0  0
    0.5890    4.1269    1.9338 H   0  0  0  0  0  0  0  0  0  0  0  0
    3.5646   -0.2517    1.2683 H   0  0  0  0  0  0  0  0  0  0  0  0
    1.2030   -1.9272    1.5363 H   0  0  0  0  0  0  0  0  0  0  0  0
    2.2055   -1.2432    2.8371 H   0  0  0  0  0  0  0  0  0  0  0  0
    2.8876   -3.5636    1.1046 H   0  0  0  0  0  0  0  0  0  0  0  0
    2.4380   -3.5638    2.8382 H   0  0  0  0  0  0  0  0  0  0  0  0
    4.9379   -2.5118    1.6295 H   0  0  0  0  0  0  0  0  0  0  0  0
    4.6985   -3.9283    2.7147 H   0  0  0  0  0  0  0  0  0  0  0  0
    4.4539   -1.0686    3.4549 H   0  0  0  0  0  0  0  0  0  0  0  0
    5.7362   -2.2485    3.9048 H   0  0  0  0  0  0  0  0  0  0  0  0
    2.9171   -2.2471    4.8214 H   0  0  0  0  0  0  0  0  0  0  0  0
    4.4106   -1.8813    5.7505 H   0  0  0  0  0  0  0  0  0  0  0  0
    3.6677   -4.5381    4.6493 H   0  0  0  0  0  0  0  0  0  0  0  0
    3.5421   -4.0117    6.3384 H   0  0  0  0  0  0  0  0  0  0  0  0
    6.1029   -4.0054    5.0000 H   0  0  0  0  0  0  0  0  0  0  0  0
    6.3672   -5.2515    9.3011 H   0  0  0  0  0  0  0  0  0  0  0  0
    4.9524   -6.2502   11.0001 H   0  0  0  0  0  0  0  0  0  0  0  0
    3.3242  -13.3764   11.4324 H   0  0  0  0  0  0  0  0  0  0  0  0
    2.0598  -16.5967    9.0203 H   0  0  0  0  0  0  0  0  0  0  0  0
   -0.2234  -15.7639    9.1204 H   0  0  0  0  0  0  0  0  0  0  0  0
   -0.5029  -14.0431   13.0376 H   0  0  0  0  0  0  0  0  0  0  0  0
   -2.0277  -13.1053   14.9340 H   0  0  0  0  0  0  0  0  0  0  0  0
   -0.0185   -9.9331   13.1921 H   0  0  0  0  0  0  0  0  0  0  0  0
   -4.4523   -9.9952   15.8629 H   0  0  0  0  0  0  0  0  0  0  0  0
   -4.6111  -12.1007   19.5168 H   0  0  0  0  0  0  0  0  0  0  0  0
   -2.2532  -12.6536   19.2951 H   0  0  0  0  0  0  0  0  0  0  0  0
    0.2719   -4.6090   16.7465 H   0  0  0  0  0  0  0  0  0  0  0  0
   -1.7378   -0.9215   16.3294 H   0  0  0  0  0  0  0  0  0  0  0  0
   -2.2496   -1.4698   14.0153 H   0  0  0  0  0  0  0  0  0  0  0  0
    1.2365   -3.6712   12.9342 H   0  0  0  0  0  0  0  0  0  0  0  0
    2.6460   -4.5712   11.0223 H   0  0  0  0  0  0  0  0  0  0  0  0
    0.7355   -7.7952   12.8209 H   0  0  0  0  0  0  0  0  0  0  0  0
   -2.1045   -5.8608   16.4932 H   0  0  0  0  0  0  0  0  0  0  0  0
   -2.7100   -8.2684   17.1076 H   0  0  0  0  0  0  0  0  0  0  0  0
    2.6788  -11.7289    9.3666 H   0  0  0  0  0  0  0  0  0  0  0  0
    3.6926   -9.4006    9.0479 H   0  0  0  0  0  0  0  0  0  0  0  0
    2.1351   -7.2731    8.0434 H   0  0  0  0  0  0  0  0  0  0  0  0
    3.6379   -6.4437    6.3318 H   0  0  0  0  0  0  0  0  0  0  0  0
  1  2  2  0  0  0  0
  2  3  1  0  0  0  0
  2 26  1  0  0  0  0
  3  4  1  0  0  0  0
  3 99  1  0  0  0  0
  3100  1  0  0  0  0
  4  5  1  0  0  0  0
  5  6  1  0  0  0  0
  5 22  2  0  0  0  0
  6  7  2  0  0  0  0
  6101  1  0  0  0  0
  7  8  1  0  0  0  0
  7102  1  0  0  0  0
  8  9  1  0  0  0  0
  8 21  2  0  0  0  0
  9 10  2  0  0  0  0
  9103  1  0  0  0  0
 10 11  1  0  0  0  0
 10104  1  0  0  0  0
 11 12  2  0  0  0  0
 11 13  1  0  0  0  0
 13 14  1  0  0  0  0
 13 19  2  0  0  0  0
 14 15  2  0  0  0  0
 14105  1  0  0  0  0
 15 16  1  0  0  0  0
 15106  1  0  0  0  0
 16 17  1  0  0  0  0
 16 18  2  0  0  0  0
 18 19  1  0  0  0  0
 18107  1  0  0  0  0
 19 20  1  0  0  0  0
 21 22  1  0  0  0  0
 21108  1  0  0  0  0
 22 23  1  0  0  0  0
 23 24  2  0  0  0  0
 23 25  1  0  0  0  0
 26 27  1  0  0  0  0
 26109  1  0  0  0  0
 27 28  1  0  0  0  0
 27110  1  0  0  0  0
 27111  1  0  0  0  0
 28 29  1  0  0  0  0
 28112  1  0  0  0  0
 28113  1  0  0  0  0
 29 30  1  0  0  0  0
 29114  1  0  0  0  0
 29115  1  0  0  0  0
 30 31  1  0  0  0  0
 30116  1  0  0  0  0
 30117  1  0  0  0  0
 31 32  1  0  0  0  0
 31118  1  0  0  0  0
 31119  1  0  0  0  0
 32 33  1  0  0  0  0
 32120  1  0  0  0  0
 32121  1  0  0  0  0
 33 34  1  0  0  0  0
 33122  1  0  0  0  0
 34 35  2  0  0  0  0
 34 36  1  0  0  0  0
 36 37  1  0  0  0  0
 36 98  2  0  0  0  0
 37 38  2  0  0  0  0
 37123  1  0  0  0  0
 38 39  1  0  0  0  0
 38124  1  0  0  0  0
 39 40  1  0  0  0  0
 39 97  2  0  0  0  0
 40 41  1  0  0  0  0
 40 91  2  0  0  0  0
 41 42  2  0  0  0  0
 41 96  1  0  0  0  0
 42 43  1  0  0  0  0
 43 44  2  0  0  0  0
 43 95  1  0  0  0  0
 44 45  1  0  0  0  0
 44 56  1  0  0  0  0
 45 46  1  0  0  0  0
 45 54  2  0  0  0  0
 46 47  2  0  0  0  0
 46125  1  0  0  0  0
 47 48  1  0  0  0  0
 47 52  1  0  0  0  0
 48 49  2  0  0  0  0
 48 50  2  0  0  0  0
 48 51  1  0  0  0  0
 52 53  2  0  0  0  0
 52126  1  0  0  0  0
 53 54  1  0  0  0  0
 53127  1  0  0  0  0
 54 55  1  0  0  0  0
 56 57  2  0  0  0  0
 56 60  1  0  0  0  0
 57 58  1  0  0  0  0
 57128  1  0  0  0  0
 58 59  2  0  0  0  0
 58129  1  0  0  0  0
 59 60  1  0  0  0  0
 59 61  1  0  0  0  0
 60130  1  0  0  0  0
 61 62  1  0  0  0  0
 61 73  2  0  0  0  0
 62 63  1  0  0  0  0
 62 71  2  0  0  0  0
 63 64  2  0  0  0  0
 63131  1  0  0  0  0
 64 65  1  0  0  0  0
 64 69  1  0  0  0  0
 65 66  2  0  0  0  0
 65 67  2  0  0  0  0
 65 68  1  0  0  0  0
 69 70  2  0  0  0  0
 69132  1  0  0  0  0
 70 71  1  0  0  0  0
 70133  1  0  0  0  0
 71 72  1  0  0  0  0
 73 74  1  0  0  0  0
 73 94  1  0  0  0  0
 74 75  2  0  0  0  0
 75 76  1  0  0  0  0
 75 93  1  0  0  0  0
 76 77  1  0  0  0  0
 76 88  2  0  0  0  0
 77 78  1  0  0  0  0
 77 86  2  0  0  0  0
 78 79  2  0  0  0  0
 78134  1  0  0  0  0
 79 80  1  0  0  0  0
 79 84  1  0  0  0  0
 80 81  2  0  0  0  0
 80 82  2  0  0  0  0
 80 83  1  0  0  0  0
 84 85  2  0  0  0  0
 84135  1  0  0  0  0
 85 86  1  0  0  0  0
 85136  1  0  0  0  0
 86 87  1  0  0  0  0
 88 89  1  0  0  0  0
 88 92  1  0  0  0  0
 89 90  2  0  0  0  0
 89137  1  0  0  0  0
 90 91  1  0  0  0  0
 90138  1  0  0  0  0
 91 92  1  0  0  0  0
 92139  1  0  0  0  0
 93 94  2  0  0  0  0
 93140  1  0  0  0  0
 94141  1  0  0  0  0
 95 96  2  0  0  0  0
 95142  1  0  0  0  0
 96143  1  0  0  0  0
 97 98  1  0  0  0  0
 97144  1  0  0  0  0
 98145  1  0  0  0  0
M  CHG  5  23   1  25  -1  51  -1  68  -1  83  -1
M  END
$$$$
