5_0_6025
 OpenBabel04152301363D

130139  0  0  0  0  0  0  0  0999 V2000
    1.1792   -0.1602   -0.0575 O   0  0  0  0  0  0  0  0  0  0  0  0
    2.4006   -0.0302   -0.0672 C   0  0  0  0  0  0  0  0  0  0  0  0
    3.1656   -0.7392    0.8245 N   0  0  0  0  0  0  0  0  0  0  0  0
    4.5849   -0.6339    1.1182 C   0  0  0  0  0  0  0  0  0  0  0  0
    4.8607   -0.4081    2.6026 C   0  0  0  0  0  0  0  0  0  0  0  0
    4.3323   -1.4925    3.5459 C   0  0  0  0  0  0  0  0  0  0  0  0
    4.7585   -2.9267    3.2209 C   0  0  0  0  0  0  0  0  0  0  0  0
    6.2663   -3.1616    3.1010 C   0  0  0  0  0  0  0  0  0  0  0  0
    7.0861   -2.7815    4.3304 C   0  0  0  0  0  0  0  0  0  0  0  0
    6.7756   -3.6047    5.4896 N   0  0  0  0  0  0  0  0  0  0  0  0
    7.6422   -4.1790    6.3867 C   0  0  0  0  0  0  0  0  0  0  0  0
    7.2320   -4.9492    7.2503 O   0  0  0  0  0  0  0  0  0  0  0  0
    9.0885   -3.8865    6.2932 C   0  0  0  0  0  0  0  0  0  0  0  0
    9.9855   -4.9538    6.2207 C   0  0  0  0  0  0  0  0  0  0  0  0
   11.3449   -4.6933    6.0707 C   0  0  0  0  0  0  0  0  0  0  0  0
   11.7956   -3.3719    5.9952 C   0  0  0  0  0  0  0  0  0  0  0  0
   10.9024   -2.2987    6.0907 C   0  0  0  0  0  0  0  0  0  0  0  0
   11.4779   -1.0638    5.9746 O   0  0  0  0  0  0  0  0  0  0  0  0
   10.6305    0.0918    5.9591 C   0  0  0  0  0  0  0  0  0  0  0  0
   10.0640    0.3989    4.5787 C   0  0  0  0  0  0  0  0  0  0  0  0
    9.1266   -0.5221    4.2321 F   0  0  0  0  0  0  0  0  0  0  0  0
    9.4149    1.5893    4.6203 F   0  0  0  0  0  0  0  0  0  0  0  0
    9.5472   -2.5622    6.2734 C   0  0  0  0  0  0  0  0  0  0  0  0
    3.0372    0.8992   -1.0264 C   0  0  0  0  0  0  0  0  0  0  0  0
    4.1603    0.5199   -1.7688 C   0  0  0  0  0  0  0  0  0  0  0  0
    4.7731    1.4370   -2.6218 C   0  0  0  0  0  0  0  0  0  0  0  0
    4.2187    2.7120   -2.8076 C   0  0  0  0  0  0  0  0  0  0  0  0
    4.8350    3.6745   -3.7562 C   0  0  0  0  0  0  0  0  0  0  0  0
    5.4439    4.9532   -3.2556 C   0  0  0  0  0  0  0  0  0  0  0  0
    5.9244    5.9640   -3.9335 N   0  0  0  0  0  0  0  0  0  0  0  0
    6.3293    6.8993   -2.9869 C   0  0  0  0  0  0  0  0  0  0  0  0
    6.9230    8.1040   -3.1857 C   0  0  0  0  0  0  0  0  0  0  0  0
    7.2233    8.9367   -1.9601 C   0  0  0  0  0  0  0  0  0  0  0  0
    8.1010    8.4888   -0.9566 C   0  0  0  0  0  0  0  0  0  0  0  0
    8.2378    9.2194    0.2339 C   0  0  0  0  0  0  0  0  0  0  0  0
    9.1048    8.4452    1.6277 S   0  0  0  0  0  0  0  0  0  0  0  0
    8.3809    7.1832    1.7651 O   0  0  0  0  0  0  0  0  0  0  0  0
   10.4724    8.3452    1.1321 O   0  0  0  0  0  0  0  0  0  0  0  0
    8.9043    9.3901    2.7245 O   0  5  0  0  0  0  0  0  0  0  0  0
    7.6064   10.4535    0.4021 C   0  0  0  0  0  0  0  0  0  0  0  0
    6.7903   10.9390   -0.6154 C   0  0  0  0  0  0  0  0  0  0  0  0
    6.5812   10.1726   -1.7642 C   0  0  0  0  0  0  0  0  0  0  0  0
    5.7184   10.6475   -2.6763 F   0  0  0  0  0  0  0  0  0  0  0  0
    7.2290    8.6408   -4.4916 C   0  0  0  0  0  0  0  0  0  0  0  0
    7.8645    9.8289   -4.8105 C   0  0  0  0  0  0  0  0  0  0  0  0
    7.8569    9.9728   -6.2029 C   0  0  0  0  0  0  0  0  0  0  0  0
    7.2893    8.8381   -6.7606 C   0  0  0  0  0  0  0  0  0  0  0  0
    6.9018    8.0334   -5.6990 N   0  0  0  0  0  0  0  0  0  0  0  0
    7.1203    8.5149   -8.1595 C   0  0  0  0  0  0  0  0  0  0  0  0
    7.6511    9.4921   -9.1780 C   0  0  0  0  0  0  0  0  0  0  0  0
    6.7995   10.2429  -10.0061 C   0  0  0  0  0  0  0  0  0  0  0  0
    7.3472   11.1338  -10.9430 C   0  0  0  0  0  0  0  0  0  0  0  0
    6.2344   12.0004  -12.0841 S   0  0  0  0  0  0  0  0  0  0  0  0
    5.6434   10.8934  -12.8290 O   0  0  0  0  0  0  0  0  0  0  0  0
    5.3393   12.7077  -11.1743 O   0  0  0  0  0  0  0  0  0  0  0  0
    7.1333   12.8569  -12.8560 O   0  5  0  0  0  0  0  0  0  0  0  0
    8.7281   11.3335  -11.0322 C   0  0  0  0  0  0  0  0  0  0  0  0
    9.5752   10.6088  -10.1994 C   0  0  0  0  0  0  0  0  0  0  0  0
    9.0389    9.6873   -9.3001 C   0  0  0  0  0  0  0  0  0  0  0  0
    9.8955    8.9924   -8.5343 F   0  0  0  0  0  0  0  0  0  0  0  0
    6.5719    7.3660   -8.6295 C   0  0  0  0  0  0  0  0  0  0  0  0
    6.0724    6.2801   -7.9179 N   0  0  0  0  0  0  0  0  0  0  0  0
    5.6706    5.4149   -8.8199 C   0  0  0  0  0  0  0  0  0  0  0  0
    5.0676    4.0526   -8.6156 C   0  0  0  0  0  0  0  0  0  0  0  0
    4.5724    3.2416   -9.7610 C   0  0  0  0  0  0  0  0  0  0  0  0
    5.4570    2.6547  -10.6766 C   0  0  0  0  0  0  0  0  0  0  0  0
    4.9514    1.8832  -11.7349 C   0  0  0  0  0  0  0  0  0  0  0  0
    6.1138    1.2096  -12.9528 S   0  0  0  0  0  0  0  0  0  0  0  0
    6.6939    2.4246  -13.5135 O   0  0  0  0  0  0  0  0  0  0  0  0
    6.9972    0.4030  -12.1170 O   0  0  0  0  0  0  0  0  0  0  0  0
    5.2552    0.4506  -13.8596 O   0  5  0  0  0  0  0  0  0  0  0  0
    3.5806    1.6479  -11.8738 C   0  0  0  0  0  0  0  0  0  0  0  0
    2.6988    2.2164  -10.9606 C   0  0  0  0  0  0  0  0  0  0  0  0
    3.1934    3.0182   -9.9323 C   0  0  0  0  0  0  0  0  0  0  0  0
    2.3086    3.5503   -9.0739 F   0  0  0  0  0  0  0  0  0  0  0  0
    4.9311    3.5783   -7.3621 C   0  0  0  0  0  0  0  0  0  0  0  0
    4.3453    2.2880   -7.0128 C   0  0  0  0  0  0  0  0  0  0  0  0
    4.2356    2.2043   -5.6789 C   0  0  0  0  0  0  0  0  0  0  0  0
    4.8014    3.4127   -5.0763 C   0  0  0  0  0  0  0  0  0  0  0  0
    5.2303    4.1520   -6.1492 N   0  0  0  0  0  0  0  0  0  0  0  0
    5.8446    5.8632  -10.2068 C   0  0  0  0  0  0  0  0  0  0  0  0
    6.4192    7.0465  -10.0352 C   0  0  0  0  0  0  0  0  0  0  0  0
    6.0018    6.3435   -1.6890 C   0  0  0  0  0  0  0  0  0  0  0  0
    5.5054    5.1198   -1.7974 C   0  0  0  0  0  0  0  0  0  0  0  0
    3.0495    3.0592   -2.1112 C   0  0  0  0  0  0  0  0  0  0  0  0
    2.4682    2.1619   -1.2129 C   0  0  0  0  0  0  0  0  0  0  0  0
    2.6803   -1.4212    1.3428 H   0  0  0  0  0  0  0  0  0  0  0  0
    4.9894    0.1880    0.5653 H   0  0  0  0  0  0  0  0  0  0  0  0
    5.0436   -1.5597    0.8399 H   0  0  0  0  0  0  0  0  0  0  0  0
    4.4101    0.5208    2.8836 H   0  0  0  0  0  0  0  0  0  0  0  0
    5.9254   -0.4217    2.7080 H   0  0  0  0  0  0  0  0  0  0  0  0
    3.2632   -1.4549    3.5226 H   0  0  0  0  0  0  0  0  0  0  0  0
    4.7558   -1.2745    4.5040 H   0  0  0  0  0  0  0  0  0  0  0  0
    4.3084   -3.2000    2.2895 H   0  0  0  0  0  0  0  0  0  0  0  0
    4.4364   -3.5210    4.0503 H   0  0  0  0  0  0  0  0  0  0  0  0
    6.6256   -2.5862    2.2735 H   0  0  0  0  0  0  0  0  0  0  0  0
    6.3920   -4.2169    2.9767 H   0  0  0  0  0  0  0  0  0  0  0  0
    6.8850   -1.7590    4.5731 H   0  0  0  0  0  0  0  0  0  0  0  0
    8.1175   -2.9363    4.0913 H   0  0  0  0  0  0  0  0  0  0  0  0
    5.8190   -3.7717    5.6519 H   0  0  0  0  0  0  0  0  0  0  0  0
    9.6443   -5.9261    6.2777 H   0  0  0  0  0  0  0  0  0  0  0  0
   12.0181   -5.4735    6.0154 H   0  0  0  0  0  0  0  0  0  0  0  0
   12.8024   -3.1851    5.8671 H   0  0  0  0  0  0  0  0  0  0  0  0
   11.1994    0.9357    6.2892 H   0  0  0  0  0  0  0  0  0  0  0  0
    9.8026   -0.1110    6.6059 H   0  0  0  0  0  0  0  0  0  0  0  0
   10.8768    0.4006    3.8828 H   0  0  0  0  0  0  0  0  0  0  0  0
    8.8813   -1.7831    6.3941 H   0  0  0  0  0  0  0  0  0  0  0  0
    4.5351   -0.4380   -1.6853 H   0  0  0  0  0  0  0  0  0  0  0  0
    5.6390    1.1764   -3.1190 H   0  0  0  0  0  0  0  0  0  0  0  0
    8.6446    7.6227   -1.0957 H   0  0  0  0  0  0  0  0  0  0  0  0
    7.7429   10.9976    1.2683 H   0  0  0  0  0  0  0  0  0  0  0  0
    6.3407   11.8631   -0.5213 H   0  0  0  0  0  0  0  0  0  0  0  0
    8.2739   10.4947   -4.1367 H   0  0  0  0  0  0  0  0  0  0  0  0
    8.2141   10.7873   -6.7264 H   0  0  0  0  0  0  0  0  0  0  0  0
    6.4590    7.1586   -5.7877 H   0  0  0  0  0  0  0  0  0  0  0  0
    5.7758   10.1399   -9.9260 H   0  0  0  0  0  0  0  0  0  0  0  0
    9.1148   12.0108  -11.7081 H   0  0  0  0  0  0  0  0  0  0  0  0
   10.5960   10.7525  -10.2469 H   0  0  0  0  0  0  0  0  0  0  0  0
    6.4750    2.7891  -10.5731 H   0  0  0  0  0  0  0  0  0  0  0  0
    3.2271    1.0596  -12.6445 H   0  0  0  0  0  0  0  0  0  0  0  0
    1.6844    2.0458  -11.0435 H   0  0  0  0  0  0  0  0  0  0  0  0
    4.0612    1.5576   -7.6842 H   0  0  0  0  0  0  0  0  0  0  0  0
    3.8193    1.4150   -5.1605 H   0  0  0  0  0  0  0  0  0  0  0  0
    5.7058    5.0094   -6.0594 H   0  0  0  0  0  0  0  0  0  0  0  0
    5.5877    5.3842  -11.0840 H   0  0  0  0  0  0  0  0  0  0  0  0
    6.7200    7.6628  -10.8064 H   0  0  0  0  0  0  0  0  0  0  0  0
    6.1380    6.8383   -0.7937 H   0  0  0  0  0  0  0  0  0  0  0  0
    5.2336    4.4582   -1.0535 H   0  0  0  0  0  0  0  0  0  0  0  0
    2.6171    3.9836   -2.2644 H   0  0  0  0  0  0  0  0  0  0  0  0
    1.6210    2.4304   -0.6883 H   0  0  0  0  0  0  0  0  0  0  0  0
  1  2  2  0  0  0  0
  2  3  1  0  0  0  0
  2 24  1  0  0  0  0
  3  4  1  0  0  0  0
  3 87  1  0  0  0  0
  4  5  1  0  0  0  0
  4 88  1  0  0  0  0
  4 89  1  0  0  0  0
  5  6  1  0  0  0  0
  5 90  1  0  0  0  0
  5 91  1  0  0  0  0
  6  7  1  0  0  0  0
  6 92  1  0  0  0  0
  6 93  1  0  0  0  0
  7  8  1  0  0  0  0
  7 94  1  0  0  0  0
  7 95  1  0  0  0  0
  8  9  1  0  0  0  0
  8 96  1  0  0  0  0
  8 97  1  0  0  0  0
  9 10  1  0  0  0  0
  9 98  1  0  0  0  0
  9 99  1  0  0  0  0
 10 11  1  0  0  0  0
 10100  1  0  0  0  0
 11 12  2  0  0  0  0
 11 13  1  0  0  0  0
 13 14  1  0  0  0  0
 13 23  2  0  0  0  0
 14 15  2  0  0  0  0
 14101  1  0  0  0  0
 15 16  1  0  0  0  0
 15102  1  0  0  0  0
 16 17  2  0  0  0  0
 16103  1  0  0  0  0
 17 18  1  0  0  0  0
 17 23  1  0  0  0  0
 18 19  1  0  0  0  0
 19 20  1  0  0  0  0
 19104  1  0  0  0  0
 19105  1  0  0  0  0
 20 21  1  0  0  0  0
 20 22  1  0  0  0  0
 20106  1  0  0  0  0
 23107  1  0  0  0  0
 24 25  1  0  0  0  0
 24 86  2  0  0  0  0
 25 26  2  0  0  0  0
 25108  1  0  0  0  0
 26 27  1  0  0  0  0
 26109  1  0  0  0  0
 27 28  1  0  0  0  0
 27 85  2  0  0  0  0
 28 29  1  0  0  0  0
 28 79  2  0  0  0  0
 29 30  2  0  0  0  0
 29 84  1  0  0  0  0
 30 31  1  0  0  0  0
 31 32  2  0  0  0  0
 31 83  1  0  0  0  0
 32 33  1  0  0  0  0
 32 44  1  0  0  0  0
 33 34  1  0  0  0  0
 33 42  2  0  0  0  0
 34 35  2  0  0  0  0
 34110  1  0  0  0  0
 35 36  1  0  0  0  0
 35 40  1  0  0  0  0
 36 37  2  0  0  0  0
 36 38  2  0  0  0  0
 36 39  1  0  0  0  0
 40 41  2  0  0  0  0
 40111  1  0  0  0  0
 41 42  1  0  0  0  0
 41112  1  0  0  0  0
 42 43  1  0  0  0  0
 44 45  2  0  0  0  0
 44 48  1  0  0  0  0
 45 46  1  0  0  0  0
 45113  1  0  0  0  0
 46 47  2  0  0  0  0
 46114  1  0  0  0  0
 47 48  1  0  0  0  0
 47 49  1  0  0  0  0
 48115  1  0  0  0  0
 49 50  1  0  0  0  0
 49 61  2  0  0  0  0
 50 51  1  0  0  0  0
 50 59  2  0  0  0  0
 51 52  2  0  0  0  0
 51116  1  0  0  0  0
 52 53  1  0  0  0  0
 52 57  1  0  0  0  0
 53 54  2  0  0  0  0
 53 55  2  0  0  0  0
 53 56  1  0  0  0  0
 57 58  2  0  0  0  0
 57117  1  0  0  0  0
 58 59  1  0  0  0  0
 58118  1  0  0  0  0
 59 60  1  0  0  0  0
 61 62  1  0  0  0  0
 61 82  1  0  0  0  0
 62 63  2  0  0  0  0
 63 64  1  0  0  0  0
 63 81  1  0  0  0  0
 64 65  1  0  0  0  0
 64 76  2  0  0  0  0
 65 66  1  0  0  0  0
 65 74  2  0  0  0  0
 66 67  2  0  0  0  0
 66119  1  0  0  0  0
 67 68  1  0  0  0  0
 67 72  1  0  0  0  0
 68 69  2  0  0  0  0
 68 70  2  0  0  0  0
 68 71  1  0  0  0  0
 72 73  2  0  0  0  0
 72120  1  0  0  0  0
 73 74  1  0  0  0  0
 73121  1  0  0  0  0
 74 75  1  0  0  0  0
 76 77  1  0  0  0  0
 76 80  1  0  0  0  0
 77 78  2  0  0  0  0
 77122  1  0  0  0  0
 78 79  1  0  0  0  0
 78123  1  0  0  0  0
 79 80  1  0  0  0  0
 80124  1  0  0  0  0
 81 82  2  0  0  0  0
 81125  1  0  0  0  0
 82126  1  0  0  0  0
 83 84  2  0  0  0  0
 83127  1  0  0  0  0
 84128  1  0  0  0  0
 85 86  1  0  0  0  0
 85129  1  0  0  0  0
 86130  1  0  0  0  0
M  CHG  3  39  -1  56  -1  71  -1
M  END
$$$$
