5_0_375
 OpenBabel04152301373D

146156  0  0  0  0  0  0  0  0999 V2000
    1.2019   -0.2966   -0.1858 C   0  0  0  0  0  0  0  0  0  0  0  0
    0.5531    1.0265    0.2230 C   0  0  1  0  0  0  0  0  0  0  0  0
    1.1023    2.1371   -0.7085 C   0  0  0  0  0  0  0  0  0  0  0  0
    0.4493    2.6115   -1.6409 O   0  0  0  0  0  0  0  0  0  0  0  0
    2.3364    2.6765   -0.4850 N   0  0  0  0  0  0  0  0  0  0  0  0
    3.4765    2.1060    0.2077 C   0  0  0  0  0  0  0  0  0  0  0  0
    4.3918    1.3958   -0.7972 C   0  0  0  0  0  0  0  0  0  0  0  0
    5.1419    2.3439   -1.7404 C   0  0  0  0  0  0  0  0  0  0  0  0
    6.1381    3.2799   -1.0532 C   0  0  0  0  0  0  0  0  0  0  0  0
    7.1910    2.5812   -0.1876 C   0  0  0  0  0  0  0  0  0  0  0  0
    8.0387    1.5414   -0.9178 C   0  0  0  0  0  0  0  0  0  0  0  0
    8.8141    2.1345   -1.9957 N   0  0  0  0  0  0  0  0  0  0  0  0
   10.1620    2.0880   -2.2285 C   0  0  0  0  0  0  0  0  0  0  0  0
   10.6527    2.8441   -3.0707 O   0  0  0  0  0  0  0  0  0  0  0  0
   11.0305    1.1601   -1.4714 C   0  0  0  0  0  0  0  0  0  0  0  0
   12.2748    1.6171   -1.0280 C   0  0  0  0  0  0  0  0  0  0  0  0
   13.1094    0.7656   -0.3013 C   0  0  0  0  0  0  0  0  0  0  0  0
   12.6962   -0.5383    0.0192 C   0  0  0  0  0  0  0  0  0  0  0  0
   13.5596   -1.4214    0.8473 C   0  0  0  0  0  0  0  0  0  0  0  0
   14.1676   -2.6662    0.2592 C   0  0  0  0  0  0  0  0  0  0  0  0
   14.9375   -3.5586    0.8285 N   0  0  0  0  0  0  0  0  0  0  0  0
   15.2025   -4.5128   -0.1482 C   0  0  0  0  0  0  0  0  0  0  0  0
   16.0143   -5.5977   -0.0790 C   0  0  0  0  0  0  0  0  0  0  0  0
   16.1317   -6.4566   -1.3157 C   0  0  0  0  0  0  0  0  0  0  0  0
   16.6936   -5.9577   -2.5045 C   0  0  0  0  0  0  0  0  0  0  0  0
   16.7221   -6.7574   -3.6569 C   0  0  0  0  0  0  0  0  0  0  0  0
   17.2254   -6.0001   -5.2260 S   0  0  0  0  0  0  0  0  0  0  0  0
   16.2102   -4.9625   -5.3904 O   0  0  0  0  0  0  0  0  0  0  0  0
   18.5753   -5.5329   -4.9334 O   0  0  0  0  0  0  0  0  0  0  0  0
   17.1402   -7.1027   -6.1816 O   0  5  0  0  0  0  0  0  0  0  0  0
   16.2877   -8.0842   -3.6274 C   0  0  0  0  0  0  0  0  0  0  0  0
   15.7710   -8.6008   -2.4426 C   0  0  0  0  0  0  0  0  0  0  0  0
   15.6710   -7.7849   -1.3133 C   0  0  0  0  0  0  0  0  0  0  0  0
   15.1077   -8.3110   -0.2143 F   0  0  0  0  0  0  0  0  0  0  0  0
   16.7534   -5.9760    1.1018 C   0  0  0  0  0  0  0  0  0  0  0  0
   17.6228   -7.0402    1.2732 C   0  0  0  0  0  0  0  0  0  0  0  0
   18.0596   -7.0438    2.6031 C   0  0  0  0  0  0  0  0  0  0  0  0
   17.5192   -5.9420    3.2457 C   0  0  0  0  0  0  0  0  0  0  0  0
   16.7097   -5.3041    2.3171 N   0  0  0  0  0  0  0  0  0  0  0  0
   17.7368   -5.4956    4.6012 C   0  0  0  0  0  0  0  0  0  0  0  0
   18.7017   -6.2659    5.4695 C   0  0  0  0  0  0  0  0  0  0  0  0
   18.2733   -6.9365    6.6290 C   0  0  0  0  0  0  0  0  0  0  0  0
   19.2141   -7.5448    7.4728 C   0  0  0  0  0  0  0  0  0  0  0  0
   18.6537   -8.2006    9.0685 S   0  0  0  0  0  0  0  0  0  0  0  0
   18.0403   -7.0267    9.6810 O   0  0  0  0  0  0  0  0  0  0  0  0
   17.7364   -9.2611    8.6643 O   0  0  0  0  0  0  0  0  0  0  0  0
   19.8881   -8.6582    9.7039 O   0  5  0  0  0  0  0  0  0  0  0  0
   20.5711   -7.5720    7.1415 C   0  0  0  0  0  0  0  0  0  0  0  0
   20.9958   -6.9570    5.9669 C   0  0  0  0  0  0  0  0  0  0  0  0
   20.0720   -6.2946    5.1571 C   0  0  0  0  0  0  0  0  0  0  0  0
   20.5372   -5.6709    4.0629 F   0  0  0  0  0  0  0  0  0  0  0  0
   17.1645   -4.3952    5.1538 C   0  0  0  0  0  0  0  0  0  0  0  0
   16.2642   -3.4933    4.5936 N   0  0  0  0  0  0  0  0  0  0  0  0
   15.9883   -2.6289    5.5435 C   0  0  0  0  0  0  0  0  0  0  0  0
   15.0964   -1.4144    5.4911 C   0  0  0  0  0  0  0  0  0  0  0  0
   14.8664   -0.5863    6.7099 C   0  0  0  0  0  0  0  0  0  0  0  0
   15.9191    0.1072    7.3276 C   0  0  0  0  0  0  0  0  0  0  0  0
   15.6971    0.7833    8.5374 C   0  0  0  0  0  0  0  0  0  0  0  0
   17.1203    1.4980    9.4062 S   0  0  0  0  0  0  0  0  0  0  0  0
   18.0021    0.3436    9.5342 O   0  0  0  0  0  0  0  0  0  0  0  0
   17.5513    2.5350    8.4748 O   0  0  0  0  0  0  0  0  0  0  0  0
   16.5441    1.9862   10.6572 O   0  5  0  0  0  0  0  0  0  0  0  0
   14.4258    0.8426    9.1125 C   0  0  0  0  0  0  0  0  0  0  0  0
   13.3670    0.1970    8.4821 C   0  0  0  0  0  0  0  0  0  0  0  0
   13.5956   -0.5243    7.3092 C   0  0  0  0  0  0  0  0  0  0  0  0
   12.5517   -1.1626    6.7563 F   0  0  0  0  0  0  0  0  0  0  0  0
   14.5015   -1.0966    4.3243 C   0  0  0  0  0  0  0  0  0  0  0  0
   13.6407    0.0609    4.1036 C   0  0  0  0  0  0  0  0  0  0  0  0
   13.1989    0.0452    2.8360 C   0  0  0  0  0  0  0  0  0  0  0  0
   13.7747   -1.1090    2.1409 C   0  0  0  0  0  0  0  0  0  0  0  0
   14.5309   -1.7298    3.1028 N   0  0  0  0  0  0  0  0  0  0  0  0
   16.6650   -2.8976    6.8182 C   0  0  0  0  0  0  0  0  0  0  0  0
   17.4079   -3.9494    6.5102 C   0  0  0  0  0  0  0  0  0  0  0  0
   14.4547   -4.1228   -1.3253 C   0  0  0  0  0  0  0  0  0  0  0  0
   13.8498   -2.9573   -1.1467 C   0  0  0  0  0  0  0  0  0  0  0  0
   11.4550   -0.9932   -0.4494 C   0  0  0  0  0  0  0  0  0  0  0  0
   10.6469   -0.1639   -1.2282 C   0  0  0  0  0  0  0  0  0  0  0  0
   -0.9879    1.0616    0.3144 C   0  0  0  0  0  0  0  0  0  0  0  0
   -1.5983    2.3326    0.4287 C   0  0  0  0  0  0  0  0  0  0  0  0
   -2.9884    2.5017    0.4919 C   0  0  0  0  0  0  0  0  0  0  0  0
   -3.8433    1.4004    0.5317 C   0  0  0  0  0  0  0  0  0  0  0  0
   -5.3385    1.5654    0.6526 C   0  0  0  0  0  0  0  0  0  0  0  0
   -5.8707    2.0599    2.0030 C   0  0  1  0  0  0  0  0  0  0  0  0
   -5.3708    1.3260    3.2513 C   0  0  0  0  0  0  0  0  0  0  0  0
   -4.2336    2.1698    3.8162 C   0  0  0  0  0  0  0  0  0  0  0  0
   -4.6128    3.6141    3.5218 C   0  0  0  0  0  0  0  0  0  0  0  0
   -5.4729    3.4881    2.2928 C   0  0  0  0  0  0  0  0  0  0  0  0
   -5.8252    4.4440    1.6115 O   0  0  0  0  0  0  0  0  0  0  0  0
   -3.2765    0.1285    0.4529 C   0  0  0  0  0  0  0  0  0  0  0  0
   -1.8797   -0.0279    0.3403 C   0  0  0  0  0  0  0  0  0  0  0  0
   -1.4507   -1.4084    0.2929 N   0  3  0  0  0  0  0  0  0  0  0  0
   -1.2361   -1.9618    1.3797 O   0  0  0  0  0  0  0  0  0  0  0  0
   -1.3948   -1.9444   -0.8212 O   0  5  0  0  0  0  0  0  0  0  0  0
    2.2653   -0.1802   -0.2091 H   0  0  0  0  0  0  0  0  0  0  0  0
    0.8528   -0.5800   -1.1567 H   0  0  0  0  0  0  0  0  0  0  0  0
    0.9416   -1.0553    0.5224 H   0  0  0  0  0  0  0  0  0  0  0  0
    0.8301    1.1855    1.2442 H   0  0  0  0  0  0  0  0  0  0  0  0
    2.4722    3.5825   -0.8456 H   0  0  0  0  0  0  0  0  0  0  0  0
    3.1335    1.4010    0.9359 H   0  0  0  0  0  0  0  0  0  0  0  0
    4.0230    2.8877    0.6927 H   0  0  0  0  0  0  0  0  0  0  0  0
    3.7924    0.7369   -1.3901 H   0  0  0  0  0  0  0  0  0  0  0  0
    5.1340    0.8783   -0.2260 H   0  0  0  0  0  0  0  0  0  0  0  0
    4.4192    2.9449   -2.2516 H   0  0  0  0  0  0  0  0  0  0  0  0
    5.7160    1.7232   -2.3961 H   0  0  0  0  0  0  0  0  0  0  0  0
    5.5865    3.9508   -0.4282 H   0  0  0  0  0  0  0  0  0  0  0  0
    6.6744    3.7734   -1.8366 H   0  0  0  0  0  0  0  0  0  0  0  0
    6.6862    2.0913    0.6187 H   0  0  0  0  0  0  0  0  0  0  0  0
    7.8670    3.3447    0.1365 H   0  0  0  0  0  0  0  0  0  0  0  0
    7.3921    0.7937   -1.3275 H   0  0  0  0  0  0  0  0  0  0  0  0
    8.7219    1.1159   -0.2128 H   0  0  0  0  0  0  0  0  0  0  0  0
    8.2920    2.6452   -2.6559 H   0  0  0  0  0  0  0  0  0  0  0  0
   12.5760    2.5817   -1.2373 H   0  0  0  0  0  0  0  0  0  0  0  0
   14.0381    1.0971    0.0031 H   0  0  0  0  0  0  0  0  0  0  0  0
   17.0851   -5.0031   -2.5292 H   0  0  0  0  0  0  0  0  0  0  0  0
   16.3489   -8.6736   -4.4723 H   0  0  0  0  0  0  0  0  0  0  0  0
   15.4624   -9.5846   -2.3987 H   0  0  0  0  0  0  0  0  0  0  0  0
   17.9013   -7.7157    0.5444 H   0  0  0  0  0  0  0  0  0  0  0  0
   18.6796   -7.7484    3.0324 H   0  0  0  0  0  0  0  0  0  0  0  0
   16.1808   -4.4927    2.4937 H   0  0  0  0  0  0  0  0  0  0  0  0
   17.2682   -6.9810    6.8587 H   0  0  0  0  0  0  0  0  0  0  0  0
   21.2504   -8.0422    7.7599 H   0  0  0  0  0  0  0  0  0  0  0  0
   21.9910   -6.9908    5.6957 H   0  0  0  0  0  0  0  0  0  0  0  0
   16.8549    0.1199    6.8928 H   0  0  0  0  0  0  0  0  0  0  0  0
   14.2739    1.3584    9.9933 H   0  0  0  0  0  0  0  0  0  0  0  0
   12.4164    0.2512    8.8800 H   0  0  0  0  0  0  0  0  0  0  0  0
   13.4086    0.7772    4.8093 H   0  0  0  0  0  0  0  0  0  0  0  0
   12.5562    0.7359    2.4178 H   0  0  0  0  0  0  0  0  0  0  0  0
   15.0464   -2.5515    2.9348 H   0  0  0  0  0  0  0  0  0  0  0  0
   16.5832   -2.3982    7.7176 H   0  0  0  0  0  0  0  0  0  0  0  0
   18.0772   -4.3961    7.1563 H   0  0  0  0  0  0  0  0  0  0  0  0
   14.3999   -4.6807   -2.1918 H   0  0  0  0  0  0  0  0  0  0  0  0
   13.2996   -2.3998   -1.8186 H   0  0  0  0  0  0  0  0  0  0  0  0
   11.1374   -1.9472   -0.2168 H   0  0  0  0  0  0  0  0  0  0  0  0
    9.7661   -0.5269   -1.6250 H   0  0  0  0  0  0  0  0  0  0  0  0
   -0.9956    3.1695    0.4671 H   0  0  0  0  0  0  0  0  0  0  0  0
   -3.3848    3.4544    0.5092 H   0  0  0  0  0  0  0  0  0  0  0  0
   -5.7864    0.6136    0.4566 H   0  0  0  0  0  0  0  0  0  0  0  0
   -5.5939    2.3328   -0.0479 H   0  0  0  0  0  0  0  0  0  0  0  0
   -6.9191    1.8989    1.8619 H   0  0  0  0  0  0  0  0  0  0  0  0
   -5.0148    0.3512    2.9905 H   0  0  0  0  0  0  0  0  0  0  0  0
   -6.1548    1.1993    3.9684 H   0  0  0  0  0  0  0  0  0  0  0  0
   -3.3098    1.9208    3.3372 H   0  0  0  0  0  0  0  0  0  0  0  0
   -4.0972    2.0012    4.8640 H   0  0  0  0  0  0  0  0  0  0  0  0
   -3.7449    4.2083    3.3257 H   0  0  0  0  0  0  0  0  0  0  0  0
   -5.1079    4.0973    4.3381 H   0  0  0  0  0  0  0  0  0  0  0  0
   -3.8845   -0.7051    0.4772 H   0  0  0  0  0  0  0  0  0  0  0  0
  1  2  1  0  0  0  0
  1 94  1  0  0  0  0
  1 95  1  0  0  0  0
  1 96  1  0  0  0  0
  2  3  1  0  0  0  0
  2 78  1  0  0  0  0
  2 97  1  1  0  0  0
  3  4  2  0  0  0  0
  3  5  1  0  0  0  0
  5  6  1  0  0  0  0
  5 98  1  0  0  0  0
  6  7  1  0  0  0  0
  6 99  1  0  0  0  0
  6100  1  0  0  0  0
  7  8  1  0  0  0  0
  7101  1  0  0  0  0
  7102  1  0  0  0  0
  8  9  1  0  0  0  0
  8103  1  0  0  0  0
  8104  1  0  0  0  0
  9 10  1  0  0  0  0
  9105  1  0  0  0  0
  9106  1  0  0  0  0
 10 11  1  0  0  0  0
 10107  1  0  0  0  0
 10108  1  0  0  0  0
 11 12  1  0  0  0  0
 11109  1  0  0  0  0
 11110  1  0  0  0  0
 12 13  1  0  0  0  0
 12111  1  0  0  0  0
 13 14  2  0  0  0  0
 13 15  1  0  0  0  0
 15 16  1  0  0  0  0
 15 77  2  0  0  0  0
 16 17  2  0  0  0  0
 16112  1  0  0  0  0
 17 18  1  0  0  0  0
 17113  1  0  0  0  0
 18 19  1  0  0  0  0
 18 76  2  0  0  0  0
 19 20  1  0  0  0  0
 19 70  2  0  0  0  0
 20 21  2  0  0  0  0
 20 75  1  0  0  0  0
 21 22  1  0  0  0  0
 22 23  2  0  0  0  0
 22 74  1  0  0  0  0
 23 24  1  0  0  0  0
 23 35  1  0  0  0  0
 24 25  1  0  0  0  0
 24 33  2  0  0  0  0
 25 26  2  0  0  0  0
 25114  1  0  0  0  0
 26 27  1  0  0  0  0
 26 31  1  0  0  0  0
 27 28  2  0  0  0  0
 27 29  2  0  0  0  0
 27 30  1  0  0  0  0
 31 32  2  0  0  0  0
 31115  1  0  0  0  0
 32 33  1  0  0  0  0
 32116  1  0  0  0  0
 33 34  1  0  0  0  0
 35 36  2  0  0  0  0
 35 39  1  0  0  0  0
 36 37  1  0  0  0  0
 36117  1  0  0  0  0
 37 38  2  0  0  0  0
 37118  1  0  0  0  0
 38 39  1  0  0  0  0
 38 40  1  0  0  0  0
 39119  1  0  0  0  0
 40 41  1  0  0  0  0
 40 52  2  0  0  0  0
 41 42  1  0  0  0  0
 41 50  2  0  0  0  0
 42 43  2  0  0  0  0
 42120  1  0  0  0  0
 43 44  1  0  0  0  0
 43 48  1  0  0  0  0
 44 45  2  0  0  0  0
 44 46  2  0  0  0  0
 44 47  1  0  0  0  0
 48 49  2  0  0  0  0
 48121  1  0  0  0  0
 49 50  1  0  0  0  0
 49122  1  0  0  0  0
 50 51  1  0  0  0  0
 52 53  1  0  0  0  0
 52 73  1  0  0  0  0
 53 54  2  0  0  0  0
 54 55  1  0  0  0  0
 54 72  1  0  0  0  0
 55 56  1  0  0  0  0
 55 67  2  0  0  0  0
 56 57  1  0  0  0  0
 56 65  2  0  0  0  0
 57 58  2  0  0  0  0
 57123  1  0  0  0  0
 58 59  1  0  0  0  0
 58 63  1  0  0  0  0
 59 60  2  0  0  0  0
 59 61  2  0  0  0  0
 59 62  1  0  0  0  0
 63 64  2  0  0  0  0
 63124  1  0  0  0  0
 64 65  1  0  0  0  0
 64125  1  0  0  0  0
 65 66  1  0  0  0  0
 67 68  1  0  0  0  0
 67 71  1  0  0  0  0
 68 69  2  0  0  0  0
 68126  1  0  0  0  0
 69 70  1  0  0  0  0
 69127  1  0  0  0  0
 70 71  1  0  0  0  0
 71128  1  0  0  0  0
 72 73  2  0  0  0  0
 72129  1  0  0  0  0
 73130  1  0  0  0  0
 74 75  2  0  0  0  0
 74131  1  0  0  0  0
 75132  1  0  0  0  0
 76 77  1  0  0  0  0
 76133  1  0  0  0  0
 77134  1  0  0  0  0
 78 79  1  0  0  0  0
 78 90  2  0  0  0  0
 79 80  2  0  0  0  0
 79135  1  0  0  0  0
 80 81  1  0  0  0  0
 80136  1  0  0  0  0
 81 82  1  0  0  0  0
 81 89  2  0  0  0  0
 82 83  1  0  0  0  0
 82137  1  0  0  0  0
 82138  1  0  0  0  0
 83 84  1  0  0  0  0
 83 87  1  0  0  0  0
 83139  1  6  0  0  0
 84 85  1  0  0  0  0
 84140  1  0  0  0  0
 84141  1  0  0  0  0
 85 86  1  0  0  0  0
 85142  1  0  0  0  0
 85143  1  0  0  0  0
 86 87  1  0  0  0  0
 86144  1  0  0  0  0
 86145  1  0  0  0  0
 87 88  2  0  0  0  0
 89 90  1  0  0  0  0
 89146  1  0  0  0  0
 90 91  1  0  0  0  0
 91 92  2  0  0  0  0
 91 93  1  0  0  0  0
M  CHG  5  30  -1  47  -1  62  -1  91   1  93  -1
M  END
$$$$
