5_1_9424
 OpenBabel04152301363D

149161  0  0  1  0  0  0  0  0999 V2000
    0.9702   -0.0114   -0.7383 C   0  0  0  0  0  0  0  0  0  0  0  0
    0.6725   -1.3925   -0.2102 C   0  0  0  0  0  0  0  0  0  0  0  0
    0.8570   -1.7761    1.2562 C   0  0  1  0  0  0  0  0  0  0  0  0
    0.7513   -0.6841    2.7104 S   0  0  0  0  0  0  0  0  0  0  0  0
    1.2858    0.9340    2.4061 C   0  0  0  0  0  0  0  0  0  0  0  0
    0.5327    1.9323    2.8305 N   0  0  0  0  0  0  0  0  0  0  0  0
    1.0446    3.1078    2.3640 N   0  0  0  0  0  0  0  0  0  0  0  0
    2.1175    2.8217    1.6663 C   0  0  0  0  0  0  0  0  0  0  0  0
    2.9187    3.6656    0.8618 C   0  0  0  0  0  0  0  0  0  0  0  0
    3.8986    3.1506    0.1091 C   0  0  0  0  0  0  0  0  0  0  0  0
    4.1978    1.7166    0.1745 C   0  0  0  0  0  0  0  0  0  0  0  0
    5.1248    1.1569   -0.7091 C   0  0  0  0  0  0  0  0  0  0  0  0
    5.4140   -0.2046   -0.6401 C   0  0  0  0  0  0  0  0  0  0  0  0
    4.8435   -0.9882    0.3637 C   0  0  0  0  0  0  0  0  0  0  0  0
    3.9270   -0.4352    1.2633 C   0  0  0  0  0  0  0  0  0  0  0  0
    3.5319    0.8890    1.1076 C   0  0  0  0  0  0  0  0  0  0  0  0
    2.3980    1.4558    1.7539 N   0  0  0  0  0  0  0  0  0  0  0  0
    0.0882   -3.0929    1.5994 C   0  0  0  0  0  0  0  0  0  0  0  0
    0.7461   -4.0670    2.0032 O   0  0  0  0  0  0  0  0  0  0  0  0
   -1.2747   -3.2844    1.5683 N   0  0  0  0  0  0  0  0  0  0  0  0
   -2.3255   -2.3678    1.3982 C   0  0  0  0  0  0  0  0  0  0  0  0
   -2.5141   -1.5773    0.2779 C   0  0  0  0  0  0  0  0  0  0  0  0
   -3.3413   -0.4621    0.3295 C   0  0  0  0  0  0  0  0  0  0  0  0
   -4.0492   -0.1958    1.4956 C   0  0  0  0  0  0  0  0  0  0  0  0
   -4.0484   -1.1234    2.5487 C   0  0  0  0  0  0  0  0  0  0  0  0
   -4.8764   -0.7978    3.7473 C   0  0  0  0  0  0  0  0  0  0  0  0
   -5.7633    0.0506    3.6386 O   0  0  0  0  0  0  0  0  0  0  0  0
   -4.6843   -1.3704    4.9832 N   0  0  0  0  0  0  0  0  0  0  0  0
   -3.7842   -2.4185    5.4218 C   0  0  0  0  0  0  0  0  0  0  0  0
   -3.3254   -2.3275    6.8645 C   0  0  0  0  0  0  0  0  0  0  0  0
   -4.4062   -2.3497    7.9365 C   0  0  0  0  0  0  0  0  0  0  0  0
   -5.4528   -3.4583    7.8196 C   0  0  0  0  0  0  0  0  0  0  0  0
   -4.9235   -4.7974    7.6610 N   0  0  0  0  0  0  0  0  0  0  0  0
   -4.5823   -5.8040    8.5227 C   0  0  0  0  0  0  0  0  0  0  0  0
   -4.4035   -6.9099    8.0037 O   0  0  0  0  0  0  0  0  0  0  0  0
   -4.3282   -5.6398    9.9790 C   0  0  0  0  0  0  0  0  0  0  0  0
   -4.4717   -4.4520   10.6926 C   0  0  0  0  0  0  0  0  0  0  0  0
   -3.9437   -4.3390   11.9728 C   0  0  0  0  0  0  0  0  0  0  0  0
   -3.3059   -5.4309   12.5693 C   0  0  0  0  0  0  0  0  0  0  0  0
   -2.7415   -5.2402   13.9023 C   0  0  0  0  0  0  0  0  0  0  0  0
   -3.7512   -4.8650   14.9318 C   0  0  0  0  0  0  0  0  0  0  0  0
   -3.8937   -3.7341   15.5429 N   0  0  0  0  0  0  0  0  0  0  0  0
   -4.9754   -3.9031   16.4098 C   0  0  0  0  0  0  0  0  0  0  0  0
   -5.1152   -3.1497   17.5387 C   0  0  0  0  0  0  0  0  0  0  0  0
   -5.6932   -3.6685   18.8418 C   0  0  0  0  0  0  0  0  0  0  0  0
   -6.0339   -5.0168   19.0526 C   0  0  0  0  0  0  0  0  0  0  0  0
   -6.3255   -5.5161   20.3297 C   0  0  0  0  0  0  0  0  0  0  0  0
   -6.8205   -7.2492   20.5375 S   0  0  0  0  0  0  0  0  0  0  0  0
   -5.7900   -7.7475   21.4496 O   0  0  0  0  0  0  0  0  0  0  0  0
   -8.1551   -7.1043   21.1164 O   0  0  0  0  0  0  0  0  0  0  0  0
   -6.7868   -7.7820   19.1852 O   0  5  0  0  0  0  0  0  0  0  0  0
   -6.2258   -4.7085   21.4555 C   0  0  0  0  0  0  0  0  0  0  0  0
   -5.9061   -3.3691   21.2838 C   0  0  0  0  0  0  0  0  0  0  0  0
   -5.6797   -2.8578   19.9986 C   0  0  0  0  0  0  0  0  0  0  0  0
   -5.3774   -1.5518   19.9268 F   0  0  0  0  0  0  0  0  0  0  0  0
   -4.2625   -1.9945   17.4928 C   0  0  0  0  0  0  0  0  0  0  0  0
   -4.2044   -0.8371   16.7491 C   0  0  0  0  0  0  0  0  0  0  0  0
   -2.8162   -0.5445   16.6285 C   0  0  0  0  0  0  0  0  0  0  0  0
   -2.0963   -1.4988   17.3539 C   0  0  0  0  0  0  0  0  0  0  0  0
   -3.0461   -2.1220   18.1131 N   0  0  0  0  0  0  0  0  0  0  0  0
   -0.7062   -1.9122   17.2977 C   0  0  0  0  0  0  0  0  0  0  0  0
    0.1839   -1.0792   16.4066 C   0  0  0  0  0  0  0  0  0  0  0  0
    0.2866    0.2818   16.7400 C   0  0  0  0  0  0  0  0  0  0  0  0
    0.8035    1.1985   15.8221 C   0  0  0  0  0  0  0  0  0  0  0  0
    0.6269    2.9744   16.1286 S   0  0  0  0  0  0  0  0  0  0  0  0
    2.0167    3.4141   16.2075 O   0  0  0  0  0  0  0  0  0  0  0  0
   -0.1069    3.4199   14.9458 O   0  0  0  0  0  0  0  0  0  0  0  0
   -0.1219    3.0458   17.3803 O   0  5  0  0  0  0  0  0  0  0  0  0
    1.3243    0.7760   14.5970 C   0  0  0  0  0  0  0  0  0  0  0  0
    1.2931   -0.5798   14.2801 C   0  0  0  0  0  0  0  0  0  0  0  0
    0.6980   -1.4896   15.1630 C   0  0  0  0  0  0  0  0  0  0  0  0
    0.5608   -2.7492   14.7272 F   0  0  0  0  0  0  0  0  0  0  0  0
   -0.2141   -3.0693   17.8271 C   0  0  0  0  0  0  0  0  0  0  0  0
    0.9511   -3.6389   17.3378 N   0  0  0  0  0  0  0  0  0  0  0  0
    0.7889   -4.9175   17.5276 C   0  0  0  0  0  0  0  0  0  0  0  0
    1.2238   -5.9659   16.5768 C   0  0  0  0  0  0  0  0  0  0  0  0
    1.8683   -7.2102   17.0724 C   0  0  0  0  0  0  0  0  0  0  0  0
    1.2775   -8.4550   16.7867 C   0  0  0  0  0  0  0  0  0  0  0  0
    1.5953   -9.5859   17.5513 C   0  0  0  0  0  0  0  0  0  0  0  0
    0.7148  -11.1493   17.2836 S   0  0  0  0  0  0  0  0  0  0  0  0
    1.8140  -12.1077   17.1913 O   0  0  0  0  0  0  0  0  0  0  0  0
   -0.0986  -11.2405   18.4909 O   0  0  0  0  0  0  0  0  0  0  0  0
   -0.0126  -10.9228   16.0388 O   0  5  0  0  0  0  0  0  0  0  0  0
    2.5277   -9.5203   18.5880 C   0  0  0  0  0  0  0  0  0  0  0  0
    3.1584   -8.3080   18.8513 C   0  0  0  0  0  0  0  0  0  0  0  0
    2.8266   -7.1712   18.1021 C   0  0  0  0  0  0  0  0  0  0  0  0
    3.3972   -6.0090   18.4560 F   0  0  0  0  0  0  0  0  0  0  0  0
    0.4527   -5.8576   15.4644 C   0  0  0  0  0  0  0  0  0  0  0  0
    0.6380   -6.4403   14.1474 C   0  0  0  0  0  0  0  0  0  0  0  0
   -0.4274   -6.1209   13.3762 C   0  0  0  0  0  0  0  0  0  0  0  0
   -1.4436   -5.4574   14.2000 C   0  0  0  0  0  0  0  0  0  0  0  0
   -0.7717   -5.2087   15.3590 N   0  0  0  0  0  0  0  0  0  0  0  0
   -0.2115   -5.2846   18.5168 C   0  0  0  0  0  0  0  0  0  0  0  0
   -0.8325   -4.1112   18.6430 C   0  0  0  0  0  0  0  0  0  0  0  0
   -5.6252   -5.1213   16.0025 C   0  0  0  0  0  0  0  0  0  0  0  0
   -4.8481   -5.8156   15.1721 C   0  0  0  0  0  0  0  0  0  0  0  0
   -3.2992   -6.6661   11.9360 C   0  0  0  0  0  0  0  0  0  0  0  0
   -3.7957   -6.7630   10.6421 C   0  0  0  0  0  0  0  0  0  0  0  0
   -3.2597   -2.2692    2.4213 C   0  0  0  0  0  0  0  0  0  0  0  0
    0.7669    0.0204   -1.7883 H   0  0  0  0  0  0  0  0  0  0  0  0
    2.0004    0.2215   -0.5672 H   0  0  0  0  0  0  0  0  0  0  0  0
    0.3544    0.7037   -0.2340 H   0  0  0  0  0  0  0  0  0  0  0  0
    1.2900   -2.0627   -0.7709 H   0  0  0  0  0  0  0  0  0  0  0  0
   -0.3916   -1.4378   -0.3127 H   0  0  0  0  0  0  0  0  0  0  0  0
    1.9230   -1.7891    1.1648 H   0  0  0  0  0  0  0  0  0  0  0  0
    2.7469    4.6832    0.8552 H   0  0  0  0  0  0  0  0  0  0  0  0
    4.4437    3.7631   -0.5175 H   0  0  0  0  0  0  0  0  0  0  0  0
    5.5940    1.7504   -1.4110 H   0  0  0  0  0  0  0  0  0  0  0  0
    6.0497   -0.6331   -1.3310 H   0  0  0  0  0  0  0  0  0  0  0  0
    5.1003   -1.9846    0.4428 H   0  0  0  0  0  0  0  0  0  0  0  0
    3.5472   -1.0045    2.0357 H   0  0  0  0  0  0  0  0  0  0  0  0
   -1.5605   -4.2193    1.6846 H   0  0  0  0  0  0  0  0  0  0  0  0
   -2.0358   -1.8185   -0.6042 H   0  0  0  0  0  0  0  0  0  0  0  0
   -3.4290    0.1611   -0.4884 H   0  0  0  0  0  0  0  0  0  0  0  0
   -4.5768    0.6864    1.5873 H   0  0  0  0  0  0  0  0  0  0  0  0
   -5.2586   -1.0043    5.6941 H   0  0  0  0  0  0  0  0  0  0  0  0
   -2.9156   -2.3889    4.7977 H   0  0  0  0  0  0  0  0  0  0  0  0
   -4.3391   -3.3304    5.3482 H   0  0  0  0  0  0  0  0  0  0  0  0
   -2.7818   -1.4123    6.9732 H   0  0  0  0  0  0  0  0  0  0  0  0
   -2.7517   -3.2154    7.0300 H   0  0  0  0  0  0  0  0  0  0  0  0
   -4.9196   -1.4115    7.9015 H   0  0  0  0  0  0  0  0  0  0  0  0
   -3.8925   -2.5378    8.8561 H   0  0  0  0  0  0  0  0  0  0  0  0
   -6.0678   -3.2436    6.9708 H   0  0  0  0  0  0  0  0  0  0  0  0
   -5.9861   -3.4597    8.7472 H   0  0  0  0  0  0  0  0  0  0  0  0
   -4.7755   -5.0382    6.7179 H   0  0  0  0  0  0  0  0  0  0  0  0
   -4.9713   -3.6543   10.2694 H   0  0  0  0  0  0  0  0  0  0  0  0
   -4.0225   -3.4465   12.4849 H   0  0  0  0  0  0  0  0  0  0  0  0
   -6.0703   -5.6569   18.2439 H   0  0  0  0  0  0  0  0  0  0  0  0
   -6.3859   -5.0959   22.3985 H   0  0  0  0  0  0  0  0  0  0  0  0
   -5.8348   -2.7478   22.1047 H   0  0  0  0  0  0  0  0  0  0  0  0
   -4.9955   -0.2985   16.3629 H   0  0  0  0  0  0  0  0  0  0  0  0
   -2.4097    0.2400   16.0953 H   0  0  0  0  0  0  0  0  0  0  0  0
   -2.8838   -2.5865   18.9658 H   0  0  0  0  0  0  0  0  0  0  0  0
   -0.0221    0.6063   17.6697 H   0  0  0  0  0  0  0  0  0  0  0  0
    1.7266    1.4588   13.9359 H   0  0  0  0  0  0  0  0  0  0  0  0
    1.7079   -0.9135   13.3960 H   0  0  0  0  0  0  0  0  0  0  0  0
    0.6050   -8.5359   16.0081 H   0  0  0  0  0  0  0  0  0  0  0  0
    2.7459  -10.3576   19.1504 H   0  0  0  0  0  0  0  0  0  0  0  0
    3.8692   -8.2463   19.5970 H   0  0  0  0  0  0  0  0  0  0  0  0
    1.4485   -7.0049   13.8486 H   0  0  0  0  0  0  0  0  0  0  0  0
   -0.5117   -6.3141   12.3660 H   0  0  0  0  0  0  0  0  0  0  0  0
   -1.1244   -4.6182   16.0634 H   0  0  0  0  0  0  0  0  0  0  0  0
   -0.3888   -6.1876   18.9839 H   0  0  0  0  0  0  0  0  0  0  0  0
   -1.6548   -3.9571   19.2472 H   0  0  0  0  0  0  0  0  0  0  0  0
   -6.5646   -5.4166   16.3114 H   0  0  0  0  0  0  0  0  0  0  0  0
   -4.9806   -6.7678   14.7969 H   0  0  0  0  0  0  0  0  0  0  0  0
   -2.9308   -7.5002   12.4192 H   0  0  0  0  0  0  0  0  0  0  0  0
   -3.7741   -7.6741   10.1580 H   0  0  0  0  0  0  0  0  0  0  0  0
   -3.3717   -3.0465    3.0908 H   0  0  0  0  0  0  0  0  0  0  0  0
  1  2  1  0  0  0  0
  1100  1  0  0  0  0
  1101  1  0  0  0  0
  1102  1  0  0  0  0
  2  3  1  0  0  0  0
  2103  1  0  0  0  0
  2104  1  0  0  0  0
  3  4  1  0  0  0  0
  3 18  1  0  0  0  0
  3105  1  1  0  0  0
  4  5  1  0  0  0  0
  5  6  2  0  0  0  0
  5 17  1  0  0  0  0
  6  7  1  0  0  0  0
  7  8  2  0  0  0  0
  8  9  1  0  0  0  0
  8 17  1  0  0  0  0
  9 10  2  0  0  0  0
  9106  1  0  0  0  0
 10 11  1  0  0  0  0
 10107  1  0  0  0  0
 11 12  1  0  0  0  0
 11 16  2  0  0  0  0
 12 13  2  0  0  0  0
 12108  1  0  0  0  0
 13 14  1  0  0  0  0
 13109  1  0  0  0  0
 14 15  2  0  0  0  0
 14110  1  0  0  0  0
 15 16  1  0  0  0  0
 15111  1  0  0  0  0
 16 17  1  0  0  0  0
 18 19  2  0  0  0  0
 18 20  1  0  0  0  0
 20 21  1  0  0  0  0
 20112  1  0  0  0  0
 21 22  1  0  0  0  0
 21 99  2  0  0  0  0
 22 23  2  0  0  0  0
 22113  1  0  0  0  0
 23 24  1  0  0  0  0
 23114  1  0  0  0  0
 24 25  2  0  0  0  0
 24115  1  0  0  0  0
 25 26  1  0  0  0  0
 25 99  1  0  0  0  0
 26 27  2  0  0  0  0
 26 28  1  0  0  0  0
 28 29  1  0  0  0  0
 28116  1  0  0  0  0
 29 30  1  0  0  0  0
 29117  1  0  0  0  0
 29118  1  0  0  0  0
 30 31  1  0  0  0  0
 30119  1  0  0  0  0
 30120  1  0  0  0  0
 31 32  1  0  0  0  0
 31121  1  0  0  0  0
 31122  1  0  0  0  0
 32 33  1  0  0  0  0
 32123  1  0  0  0  0
 32124  1  0  0  0  0
 33 34  1  0  0  0  0
 33125  1  0  0  0  0
 34 35  2  0  0  0  0
 34 36  1  0  0  0  0
 36 37  1  0  0  0  0
 36 98  2  0  0  0  0
 37 38  2  0  0  0  0
 37126  1  0  0  0  0
 38 39  1  0  0  0  0
 38127  1  0  0  0  0
 39 40  1  0  0  0  0
 39 97  2  0  0  0  0
 40 41  1  0  0  0  0
 40 91  2  0  0  0  0
 41 42  2  0  0  0  0
 41 96  1  0  0  0  0
 42 43  1  0  0  0  0
 43 44  2  0  0  0  0
 43 95  1  0  0  0  0
 44 45  1  0  0  0  0
 44 56  1  0  0  0  0
 45 46  1  0  0  0  0
 45 54  2  0  0  0  0
 46 47  2  0  0  0  0
 46128  1  0  0  0  0
 47 48  1  0  0  0  0
 47 52  1  0  0  0  0
 48 49  2  0  0  0  0
 48 50  2  0  0  0  0
 48 51  1  0  0  0  0
 52 53  2  0  0  0  0
 52129  1  0  0  0  0
 53 54  1  0  0  0  0
 53130  1  0  0  0  0
 54 55  1  0  0  0  0
 56 57  2  0  0  0  0
 56 60  1  0  0  0  0
 57 58  1  0  0  0  0
 57131  1  0  0  0  0
 58 59  2  0  0  0  0
 58132  1  0  0  0  0
 59 60  1  0  0  0  0
 59 61  1  0  0  0  0
 60133  1  0  0  0  0
 61 62  1  0  0  0  0
 61 73  2  0  0  0  0
 62 63  1  0  0  0  0
 62 71  2  0  0  0  0
 63 64  2  0  0  0  0
 63134  1  0  0  0  0
 64 65  1  0  0  0  0
 64 69  1  0  0  0  0
 65 66  2  0  0  0  0
 65 67  2  0  0  0  0
 65 68  1  0  0  0  0
 69 70  2  0  0  0  0
 69135  1  0  0  0  0
 70 71  1  0  0  0  0
 70136  1  0  0  0  0
 71 72  1  0  0  0  0
 73 74  1  0  0  0  0
 73 94  1  0  0  0  0
 74 75  2  0  0  0  0
 75 76  1  0  0  0  0
 75 93  1  0  0  0  0
 76 77  1  0  0  0  0
 76 88  2  0  0  0  0
 77 78  1  0  0  0  0
 77 86  2  0  0  0  0
 78 79  2  0  0  0  0
 78137  1  0  0  0  0
 79 80  1  0  0  0  0
 79 84  1  0  0  0  0
 80 81  2  0  0  0  0
 80 82  2  0  0  0  0
 80 83  1  0  0  0  0
 84 85  2  0  0  0  0
 84138  1  0  0  0  0
 85 86  1  0  0  0  0
 85139  1  0  0  0  0
 86 87  1  0  0  0  0
 88 89  1  0  0  0  0
 88 92  1  0  0  0  0
 89 90  2  0  0  0  0
 89140  1  0  0  0  0
 90 91  1  0  0  0  0
 90141  1  0  0  0  0
 91 92  1  0  0  0  0
 92142  1  0  0  0  0
 93 94  2  0  0  0  0
 93143  1  0  0  0  0
 94144  1  0  0  0  0
 95 96  2  0  0  0  0
 95145  1  0  0  0  0
 96146  1  0  0  0  0
 97 98  1  0  0  0  0
 97147  1  0  0  0  0
 98148  1  0  0  0  0
 99149  1  0  0  0  0
M  CHG  3  51  -1  68  -1  83  -1
M  END
$$$$
