5_1_5843
 OpenBabel04152300273D

152164  0  0  1  0  0  0  0  0999 V2000
   -0.4666    0.3312    0.4771 C   0  0  0  0  0  0  0  0  0  0  0  0
   -0.5844   -0.0158    1.8368 O   0  0  0  0  0  0  0  0  0  0  0  0
    0.0672   -1.1021    2.3485 C   0  0  0  0  0  0  0  0  0  0  0  0
   -0.6902   -1.6358    3.4195 C   0  0  0  0  0  0  0  0  0  0  0  0
   -0.1866   -2.6007    4.2882 C   0  0  0  0  0  0  0  0  0  0  0  0
    1.0969   -3.0660    4.0954 C   0  0  0  0  0  0  0  0  0  0  0  0
    1.8396   -2.5884    3.0156 C   0  0  0  0  0  0  0  0  0  0  0  0
    1.3598   -1.5998    2.1012 C   0  0  0  0  0  0  0  0  0  0  0  0
    2.4477   -1.0833    1.1610 C   0  0  2  0  0  0  0  0  0  0  0  0
    2.8881    0.3415    1.5699 C   0  0  0  0  0  0  0  0  0  0  0  0
    3.6436    0.9030    0.4456 N   0  0  0  0  0  0  0  0  0  0  0  0
    5.1175    0.9934    0.7073 C   0  0  0  0  0  0  0  0  0  0  0  0
    5.8152   -0.3249    0.9876 C   0  0  0  0  0  0  0  0  0  0  0  0
    6.4979   -0.6865    2.1718 C   0  0  0  0  0  0  0  0  0  0  0  0
    6.6123   -2.0373    2.4702 C   0  0  0  0  0  0  0  0  0  0  0  0
    5.8684   -2.9290    1.7702 C   0  0  0  0  0  0  0  0  0  0  0  0
    5.2505   -2.5499    0.6242 C   0  0  0  0  0  0  0  0  0  0  0  0
    5.5634   -1.3188    0.0676 C   0  0  0  0  0  0  0  0  0  0  0  0
    5.6728   -1.0090   -1.4009 C   0  0  0  0  0  0  0  0  0  0  0  0
    5.9063   -4.1982    2.2391 O   0  0  0  0  0  0  0  0  0  0  0  0
    7.0659   -4.0682    3.0732 C   0  0  0  0  0  0  0  0  0  0  0  0
    7.3146   -2.6791    3.4423 O   0  0  0  0  0  0  0  0  0  0  0  0
    3.0947    0.2288   -0.7656 C   0  0  0  0  0  0  0  0  0  0  0  0
    2.4418   -1.1373   -0.4042 C   0  0  1  0  0  0  0  0  0  0  0  0
    2.5507   -2.5809   -1.1582 C   0  0  0  0  0  0  0  0  0  0  0  0
    1.4389   -3.1709   -1.1857 O   0  0  0  0  0  0  0  0  0  0  0  0
    3.4569   -3.4093   -1.7584 N   0  0  0  0  0  0  0  0  0  0  0  0
    4.8534   -3.7722   -2.3646 C   0  0  0  0  0  0  0  0  0  0  0  0
    6.0073   -4.2651   -1.4261 C   0  0  0  0  0  0  0  0  0  0  0  0
    7.2674   -4.9717   -1.9256 C   0  0  0  0  0  0  0  0  0  0  0  0
    8.1448   -4.1021   -2.8250 C   0  0  0  0  0  0  0  0  0  0  0  0
    9.2015   -3.3445   -2.1308 N   0  0  0  0  0  0  0  0  0  0  0  0
   10.5095   -3.6615   -1.7737 C   0  0  0  0  0  0  0  0  0  0  0  0
   11.1837   -2.8704   -1.1490 O   0  0  0  0  0  0  0  0  0  0  0  0
   11.0491   -5.0011   -2.1080 C   0  0  0  0  0  0  0  0  0  0  0  0
   11.7783   -5.7360   -1.1689 C   0  0  0  0  0  0  0  0  0  0  0  0
   12.0540   -7.0865   -1.4199 C   0  0  0  0  0  0  0  0  0  0  0  0
   11.5000   -7.7212   -2.5436 C   0  0  0  0  0  0  0  0  0  0  0  0
   11.6426   -9.1792   -2.8183 C   0  0  0  0  0  0  0  0  0  0  0  0
   12.1286   -9.6257   -4.1810 C   0  0  0  0  0  0  0  0  0  0  0  0
   12.1316  -10.8205   -4.7122 N   0  0  0  0  0  0  0  0  0  0  0  0
   12.5442  -10.6447   -6.0307 C   0  0  0  0  0  0  0  0  0  0  0  0
   12.8421  -11.5822   -6.9619 C   0  0  0  0  0  0  0  0  0  0  0  0
   13.2535  -11.1086   -8.3368 C   0  0  0  0  0  0  0  0  0  0  0  0
   14.3946  -10.3108   -8.5377 C   0  0  0  0  0  0  0  0  0  0  0  0
   14.6840   -9.8061   -9.8141 C   0  0  0  0  0  0  0  0  0  0  0  0
   15.9813   -8.5485   -9.9737 S   0  0  0  0  0  0  0  0  0  0  0  0
   15.4514   -7.4735   -9.1375 O   0  0  0  0  0  0  0  0  0  0  0  0
   17.1568   -9.2387   -9.4564 O   0  0  0  0  0  0  0  0  0  0  0  0
   16.0052   -8.2605  -11.4061 O   0  5  0  0  0  0  0  0  0  0  0  0
   13.9249  -10.1746  -10.9260 C   0  0  0  0  0  0  0  0  0  0  0  0
   12.8261  -11.0100  -10.7469 C   0  0  0  0  0  0  0  0  0  0  0  0
   12.4813  -11.4408   -9.4637 C   0  0  0  0  0  0  0  0  0  0  0  0
   11.3679  -12.1798   -9.3359 F   0  0  0  0  0  0  0  0  0  0  0  0
   12.7953  -12.9944   -6.6917 C   0  0  0  0  0  0  0  0  0  0  0  0
   13.1719  -14.0416   -7.5115 C   0  0  0  0  0  0  0  0  0  0  0  0
   12.8989  -15.2368   -6.8402 C   0  0  0  0  0  0  0  0  0  0  0  0
   12.4261  -14.9348   -5.5721 C   0  0  0  0  0  0  0  0  0  0  0  0
   12.3571  -13.5549   -5.4989 N   0  0  0  0  0  0  0  0  0  0  0  0
   12.0716  -15.8418   -4.5080 C   0  0  0  0  0  0  0  0  0  0  0  0
   12.2339  -17.3177   -4.7620 C   0  0  0  0  0  0  0  0  0  0  0  0
   11.1264  -18.1804   -4.7997 C   0  0  0  0  0  0  0  0  0  0  0  0
   11.3223  -19.5561   -4.9779 C   0  0  0  0  0  0  0  0  0  0  0  0
    9.8970  -20.6616   -4.8035 S   0  0  0  0  0  0  0  0  0  0  0  0
    9.4552  -20.3722   -3.4431 O   0  0  0  0  0  0  0  0  0  0  0  0
    9.0138  -20.2037   -5.8711 O   0  0  0  0  0  0  0  0  0  0  0  0
   10.4697  -21.9918   -5.0007 O   0  5  0  0  0  0  0  0  0  0  0  0
   12.5966  -20.0816   -5.2082 C   0  0  0  0  0  0  0  0  0  0  0  0
   13.6941  -19.2253   -5.2179 C   0  0  0  0  0  0  0  0  0  0  0  0
   13.5120  -17.8654   -4.9697 C   0  0  0  0  0  0  0  0  0  0  0  0
   14.6037  -17.0839   -4.9441 F   0  0  0  0  0  0  0  0  0  0  0  0
   11.6315  -15.4745   -3.2772 C   0  0  0  0  0  0  0  0  0  0  0  0
   11.4125  -14.2019   -2.7574 N   0  0  0  0  0  0  0  0  0  0  0  0
   10.9569  -14.3871   -1.5382 C   0  0  0  0  0  0  0  0  0  0  0  0
   10.5784  -13.3580   -0.4999 C   0  0  0  0  0  0  0  0  0  0  0  0
   10.0425  -13.7759    0.8314 C   0  0  0  0  0  0  0  0  0  0  0  0
   10.8147  -14.5571    1.7077 C   0  0  0  0  0  0  0  0  0  0  0  0
   10.2533  -15.0420    2.9003 C   0  0  0  0  0  0  0  0  0  0  0  0
   11.2076  -16.2260    3.8910 S   0  0  0  0  0  0  0  0  0  0  0  0
   11.4885  -17.2716    2.9139 O   0  0  0  0  0  0  0  0  0  0  0  0
   12.3469  -15.4178    4.3120 O   0  0  0  0  0  0  0  0  0  0  0  0
   10.2819  -16.6002    4.9581 O   0  5  0  0  0  0  0  0  0  0  0  0
    8.9553  -14.6991    3.2819 C   0  0  0  0  0  0  0  0  0  0  0  0
    8.1988  -13.8852    2.4449 C   0  0  0  0  0  0  0  0  0  0  0  0
    8.7317  -13.4544    1.2272 C   0  0  0  0  0  0  0  0  0  0  0  0
    7.9462  -12.7077    0.4347 F   0  0  0  0  0  0  0  0  0  0  0  0
   10.7407  -12.0552   -0.8084 C   0  0  0  0  0  0  0  0  0  0  0  0
   10.4186  -10.9315    0.0623 C   0  0  0  0  0  0  0  0  0  0  0  0
   10.6673   -9.7848   -0.5907 C   0  0  0  0  0  0  0  0  0  0  0  0
   11.2314  -10.0890   -1.9098 C   0  0  0  0  0  0  0  0  0  0  0  0
   11.2157  -11.4613   -1.9576 N   0  0  0  0  0  0  0  0  0  0  0  0
   10.8102  -15.7972   -1.1585 C   0  0  0  0  0  0  0  0  0  0  0  0
   11.2860  -16.4135   -2.2296 C   0  0  0  0  0  0  0  0  0  0  0  0
   12.6743   -9.2242   -6.2481 C   0  0  0  0  0  0  0  0  0  0  0  0
   12.5980   -8.5723   -5.1004 C   0  0  0  0  0  0  0  0  0  0  0  0
   10.8181   -6.9362   -3.4814 C   0  0  0  0  0  0  0  0  0  0  0  0
   10.7475   -5.5652   -3.3344 C   0  0  0  0  0  0  0  0  0  0  0  0
   -1.2855    1.0203    0.2428 H   0  0  0  0  0  0  0  0  0  0  0  0
   -0.5712   -0.5312   -0.1836 H   0  0  0  0  0  0  0  0  0  0  0  0
    0.4499    0.8912    0.3052 H   0  0  0  0  0  0  0  0  0  0  0  0
   -1.6910   -1.2484    3.6048 H   0  0  0  0  0  0  0  0  0  0  0  0
   -0.7812   -2.9563    5.1241 H   0  0  0  0  0  0  0  0  0  0  0  0
    1.5399   -3.7778    4.7868 H   0  0  0  0  0  0  0  0  0  0  0  0
    2.8621   -2.9620    2.9365 H   0  0  0  0  0  0  0  0  0  0  0  0
    3.2936   -1.7033    1.4149 H   0  0  0  0  0  0  0  0  0  0  0  0
    2.0329    0.9965    1.7627 H   0  0  0  0  0  0  0  0  0  0  0  0
    3.4569    0.3288    2.5086 H   0  0  0  0  0  0  0  0  0  0  0  0
    5.6040    1.5141   -0.1250 H   0  0  0  0  0  0  0  0  0  0  0  0
    5.2671    1.6487    1.5740 H   0  0  0  0  0  0  0  0  0  0  0  0
    6.9099    0.0569    2.8405 H   0  0  0  0  0  0  0  0  0  0  0  0
    4.6289   -3.2936    0.1659 H   0  0  0  0  0  0  0  0  0  0  0  0
    6.5502   -1.4927   -1.8343 H   0  0  0  0  0  0  0  0  0  0  0  0
    4.7954   -1.3005   -1.9679 H   0  0  0  0  0  0  0  0  0  0  0  0
    5.8278    0.0530   -1.6088 H   0  0  0  0  0  0  0  0  0  0  0  0
    7.9237   -4.4696    2.5114 H   0  0  0  0  0  0  0  0  0  0  0  0
    6.9221   -4.6751    3.9716 H   0  0  0  0  0  0  0  0  0  0  0  0
    3.6914    0.2908   -1.6706 H   0  0  0  0  0  0  0  0  0  0  0  0
    2.2564    0.8861   -1.0504 H   0  0  0  0  0  0  0  0  0  0  0  0
    1.3983   -0.9402   -0.6778 H   0  0  0  0  0  0  0  0  0  0  0  0
    2.8628   -4.2046   -1.9814 H   0  0  0  0  0  0  0  0  0  0  0  0
    4.6290   -4.6297   -3.0124 H   0  0  0  0  0  0  0  0  0  0  0  0
    5.1714   -2.9760   -3.0390 H   0  0  0  0  0  0  0  0  0  0  0  0
    6.4771   -3.4054   -0.9713 H   0  0  0  0  0  0  0  0  0  0  0  0
    5.5814   -4.9099   -0.6497 H   0  0  0  0  0  0  0  0  0  0  0  0
    7.8578   -5.2635   -1.0413 H   0  0  0  0  0  0  0  0  0  0  0  0
    6.9831   -5.8996   -2.4277 H   0  0  0  0  0  0  0  0  0  0  0  0
    8.5601   -4.7613   -3.5761 H   0  0  0  0  0  0  0  0  0  0  0  0
    7.5517   -3.3698   -3.3762 H   0  0  0  0  0  0  0  0  0  0  0  0
    8.9702   -2.4092   -1.8186 H   0  0  0  0  0  0  0  0  0  0  0  0
   12.1103   -5.2782   -0.2401 H   0  0  0  0  0  0  0  0  0  0  0  0
   12.6430   -7.6562   -0.7020 H   0  0  0  0  0  0  0  0  0  0  0  0
   15.0286  -10.0130   -7.7039 H   0  0  0  0  0  0  0  0  0  0  0  0
   14.1755   -9.7903  -11.9108 H   0  0  0  0  0  0  0  0  0  0  0  0
   12.2150  -11.3069  -11.5919 H   0  0  0  0  0  0  0  0  0  0  0  0
   13.5840  -13.9528   -8.5072 H   0  0  0  0  0  0  0  0  0  0  0  0
   13.0640  -16.2294   -7.2354 H   0  0  0  0  0  0  0  0  0  0  0  0
   12.0410  -13.0282   -4.6919 H   0  0  0  0  0  0  0  0  0  0  0  0
   10.1166  -17.8086   -4.6346 H   0  0  0  0  0  0  0  0  0  0  0  0
   12.7274  -21.1496   -5.3554 H   0  0  0  0  0  0  0  0  0  0  0  0
   14.6934  -19.6065   -5.3938 H   0  0  0  0  0  0  0  0  0  0  0  0
   11.8317  -14.8564    1.4559 H   0  0  0  0  0  0  0  0  0  0  0  0
    8.5381  -15.0873    4.2075 H   0  0  0  0  0  0  0  0  0  0  0  0
    7.1860  -13.6094    2.7173 H   0  0  0  0  0  0  0  0  0  0  0  0
   10.0172  -10.9978    1.0601 H   0  0  0  0  0  0  0  0  0  0  0  0
   10.4714   -8.8084   -0.1830 H   0  0  0  0  0  0  0  0  0  0  0  0
   11.5109  -12.0053   -2.7652 H   0  0  0  0  0  0  0  0  0  0  0  0
   10.4537  -16.2544   -0.2554 H   0  0  0  0  0  0  0  0  0  0  0  0
   11.3606  -17.4892   -2.2827 H   0  0  0  0  0  0  0  0  0  0  0  0
   12.9093   -8.7336   -7.1803 H   0  0  0  0  0  0  0  0  0  0  0  0
   12.7538   -7.5227   -4.9520 H   0  0  0  0  0  0  0  0  0  0  0  0
   10.3764   -7.3800   -4.3721 H   0  0  0  0  0  0  0  0  0  0  0  0
   10.3824   -4.9589   -4.1561 H   0  0  0  0  0  0  0  0  0  0  0  0
  1  2  1  0  0  0  0
  1 98  1  0  0  0  0
  1 99  1  0  0  0  0
  1100  1  0  0  0  0
  2  3  1  0  0  0  0
  3  4  1  0  0  0  0
  3  8  2  0  0  0  0
  4  5  2  0  0  0  0
  4101  1  0  0  0  0
  5  6  1  0  0  0  0
  5102  1  0  0  0  0
  6  7  2  0  0  0  0
  6103  1  0  0  0  0
  7  8  1  0  0  0  0
  7104  1  0  0  0  0
  8  9  1  0  0  0  0
  9 10  1  0  0  0  0
  9 24  1  0  0  0  0
  9105  1  1  0  0  0
 10 11  1  0  0  0  0
 10106  1  0  0  0  0
 10107  1  0  0  0  0
 11 12  1  0  0  0  0
 11 23  1  0  0  0  0
 12 13  1  0  0  0  0
 12108  1  0  0  0  0
 12109  1  0  0  0  0
 13 14  1  0  0  0  0
 13 18  2  0  0  0  0
 14 15  2  0  0  0  0
 14110  1  0  0  0  0
 15 16  1  0  0  0  0
 15 22  1  0  0  0  0
 16 17  2  0  0  0  0
 16 20  1  0  0  0  0
 17 18  1  0  0  0  0
 17111  1  0  0  0  0
 18 19  1  0  0  0  0
 19112  1  0  0  0  0
 19113  1  0  0  0  0
 19114  1  0  0  0  0
 20 21  1  0  0  0  0
 21 22  1  0  0  0  0
 21115  1  0  0  0  0
 21116  1  0  0  0  0
 23 24  1  0  0  0  0
 23117  1  0  0  0  0
 23118  1  0  0  0  0
 24 25  1  0  0  0  0
 24119  1  6  0  0  0
 25 26  2  0  0  0  0
 25 27  1  0  0  0  0
 27 28  1  0  0  0  0
 27120  1  0  0  0  0
 28 29  1  0  0  0  0
 28121  1  0  0  0  0
 28122  1  0  0  0  0
 29 30  1  0  0  0  0
 29123  1  0  0  0  0
 29124  1  0  0  0  0
 30 31  1  0  0  0  0
 30125  1  0  0  0  0
 30126  1  0  0  0  0
 31 32  1  0  0  0  0
 31127  1  0  0  0  0
 31128  1  0  0  0  0
 32 33  1  0  0  0  0
 32129  1  0  0  0  0
 33 34  2  0  0  0  0
 33 35  1  0  0  0  0
 35 36  1  0  0  0  0
 35 97  2  0  0  0  0
 36 37  2  0  0  0  0
 36130  1  0  0  0  0
 37 38  1  0  0  0  0
 37131  1  0  0  0  0
 38 39  1  0  0  0  0
 38 96  2  0  0  0  0
 39 40  1  0  0  0  0
 39 90  2  0  0  0  0
 40 41  2  0  0  0  0
 40 95  1  0  0  0  0
 41 42  1  0  0  0  0
 42 43  2  0  0  0  0
 42 94  1  0  0  0  0
 43 44  1  0  0  0  0
 43 55  1  0  0  0  0
 44 45  1  0  0  0  0
 44 53  2  0  0  0  0
 45 46  2  0  0  0  0
 45132  1  0  0  0  0
 46 47  1  0  0  0  0
 46 51  1  0  0  0  0
 47 48  2  0  0  0  0
 47 49  2  0  0  0  0
 47 50  1  0  0  0  0
 51 52  2  0  0  0  0
 51133  1  0  0  0  0
 52 53  1  0  0  0  0
 52134  1  0  0  0  0
 53 54  1  0  0  0  0
 55 56  2  0  0  0  0
 55 59  1  0  0  0  0
 56 57  1  0  0  0  0
 56135  1  0  0  0  0
 57 58  2  0  0  0  0
 57136  1  0  0  0  0
 58 59  1  0  0  0  0
 58 60  1  0  0  0  0
 59137  1  0  0  0  0
 60 61  1  0  0  0  0
 60 72  2  0  0  0  0
 61 62  1  0  0  0  0
 61 70  2  0  0  0  0
 62 63  2  0  0  0  0
 62138  1  0  0  0  0
 63 64  1  0  0  0  0
 63 68  1  0  0  0  0
 64 65  2  0  0  0  0
 64 66  2  0  0  0  0
 64 67  1  0  0  0  0
 68 69  2  0  0  0  0
 68139  1  0  0  0  0
 69 70  1  0  0  0  0
 69140  1  0  0  0  0
 70 71  1  0  0  0  0
 72 73  1  0  0  0  0
 72 93  1  0  0  0  0
 73 74  2  0  0  0  0
 74 75  1  0  0  0  0
 74 92  1  0  0  0  0
 75 76  1  0  0  0  0
 75 87  2  0  0  0  0
 76 77  1  0  0  0  0
 76 85  2  0  0  0  0
 77 78  2  0  0  0  0
 77141  1  0  0  0  0
 78 79  1  0  0  0  0
 78 83  1  0  0  0  0
 79 80  2  0  0  0  0
 79 81  2  0  0  0  0
 79 82  1  0  0  0  0
 83 84  2  0  0  0  0
 83142  1  0  0  0  0
 84 85  1  0  0  0  0
 84143  1  0  0  0  0
 85 86  1  0  0  0  0
 87 88  1  0  0  0  0
 87 91  1  0  0  0  0
 88 89  2  0  0  0  0
 88144  1  0  0  0  0
 89 90  1  0  0  0  0
 89145  1  0  0  0  0
 90 91  1  0  0  0  0
 91146  1  0  0  0  0
 92 93  2  0  0  0  0
 92147  1  0  0  0  0
 93148  1  0  0  0  0
 94 95  2  0  0  0  0
 94149  1  0  0  0  0
 95150  1  0  0  0  0
 96 97  1  0  0  0  0
 96151  1  0  0  0  0
 97152  1  0  0  0  0
M  CHG  3  50  -1  67  -1  82  -1
M  END
$$$$
