5_1_2726
 OpenBabel04152301373D

141152  0  0  0  0  0  0  0  0999 V2000
    0.8718    0.3261   -0.4306 O   0  0  0  0  0  0  0  0  0  0  0  0
    1.9816   -0.0196   -0.0295 C   0  0  0  0  0  0  0  0  0  0  0  0
    2.8043    0.8581    0.9244 C   0  0  0  0  0  0  0  0  0  0  0  0
    3.7589    0.2249    1.7680 O   0  0  0  0  0  0  0  0  0  0  0  0
    3.1494   -0.3246    2.8696 C   0  0  0  0  0  0  0  0  0  0  0  0
    2.1693   -1.2201    2.6641 N   0  0  0  0  0  0  0  0  0  0  0  0
    1.6124   -1.7871    3.7490 C   0  0  0  0  0  0  0  0  0  0  0  0
    0.6092   -2.6755    3.4985 N   0  0  0  0  0  0  0  0  0  0  0  0
   -0.0532   -3.4248    4.5284 C   0  0  0  0  0  0  0  0  0  0  0  0
   -1.5493   -3.2227    4.4376 C   0  0  0  0  0  0  0  0  0  0  0  0
   -2.4197   -4.3214    4.3815 C   0  0  0  0  0  0  0  0  0  0  0  0
   -3.8027   -4.1301    4.3348 C   0  0  0  0  0  0  0  0  0  0  0  0
   -4.3308   -2.8392    4.3476 C   0  0  0  0  0  0  0  0  0  0  0  0
   -3.4742   -1.7426    4.4103 C   0  0  0  0  0  0  0  0  0  0  0  0
   -4.1268   -0.1502    4.4358 Cl  0  0  0  0  0  0  0  0  0  0  0  0
   -2.0939   -1.9274    4.4604 C   0  0  0  0  0  0  0  0  0  0  0  0
    1.9678   -1.5091    5.0136 N   0  0  0  0  0  0  0  0  0  0  0  0
    2.9620   -0.6271    5.1533 C   0  0  0  0  0  0  0  0  0  0  0  0
    3.6060   -0.0090    4.1111 C   0  0  0  0  0  0  0  0  0  0  0  0
    4.6266    0.9598    4.5824 C   0  0  0  0  0  0  0  0  0  0  0  0
    4.7966    0.5201    6.0475 C   0  0  0  0  0  0  0  0  0  0  0  0
    3.4692   -0.1243    6.4736 C   0  0  0  0  0  0  0  0  0  0  0  0
    2.6218   -1.1631   -0.4565 N   0  0  0  0  0  0  0  0  0  0  0  0
    1.9784   -2.1342   -1.3139 C   0  0  0  0  0  0  0  0  0  0  0  0
    2.3673   -1.9870   -2.7831 C   0  0  0  0  0  0  0  0  0  0  0  0
    3.8579   -2.1640   -3.0849 C   0  0  0  0  0  0  0  0  0  0  0  0
    4.4927   -3.4549   -2.5742 C   0  0  0  0  0  0  0  0  0  0  0  0
    3.8892   -4.6511   -3.1385 N   0  0  0  0  0  0  0  0  0  0  0  0
    4.4858   -5.7332   -3.7417 C   0  0  0  0  0  0  0  0  0  0  0  0
    3.7843   -6.5947   -4.2667 O   0  0  0  0  0  0  0  0  0  0  0  0
    5.9620   -5.8467   -3.7929 C   0  0  0  0  0  0  0  0  0  0  0  0
    6.5654   -6.2076   -5.0013 C   0  0  0  0  0  0  0  0  0  0  0  0
    7.9591   -6.2569   -5.0966 C   0  0  0  0  0  0  0  0  0  0  0  0
    8.7605   -5.9173   -3.9946 C   0  0  0  0  0  0  0  0  0  0  0  0
   10.2433   -5.8888   -4.1033 C   0  0  0  0  0  0  0  0  0  0  0  0
   11.0777   -6.8727   -3.3295 C   0  0  0  0  0  0  0  0  0  0  0  0
   12.3799   -6.9547   -3.2335 N   0  0  0  0  0  0  0  0  0  0  0  0
   12.6313   -8.0232   -2.3806 C   0  0  0  0  0  0  0  0  0  0  0  0
   13.8235   -8.5501   -2.0104 C   0  0  0  0  0  0  0  0  0  0  0  0
   13.8035   -9.7189   -1.0617 C   0  0  0  0  0  0  0  0  0  0  0  0
   13.3270  -10.9778   -1.4637 C   0  0  0  0  0  0  0  0  0  0  0  0
   13.3027  -12.0390   -0.5475 C   0  0  0  0  0  0  0  0  0  0  0  0
   12.5235  -13.5987   -1.0431 S   0  0  0  0  0  0  0  0  0  0  0  0
   11.1256  -13.1971   -1.1786 O   0  0  0  0  0  0  0  0  0  0  0  0
   13.2180  -13.9223   -2.2839 O   0  0  0  0  0  0  0  0  0  0  0  0
   12.8040  -14.4927    0.0786 O   0  5  0  0  0  0  0  0  0  0  0  0
   13.8166  -11.8927    0.7438 C   0  0  0  0  0  0  0  0  0  0  0  0
   14.3166  -10.6550    1.1394 C   0  0  0  0  0  0  0  0  0  0  0  0
   14.2859   -9.5790    0.2510 C   0  0  0  0  0  0  0  0  0  0  0  0
   14.7368   -8.3931    0.6899 F   0  0  0  0  0  0  0  0  0  0  0  0
   15.1004   -8.0581   -2.4607 C   0  0  0  0  0  0  0  0  0  0  0  0
   16.3624   -8.5444   -2.1647 C   0  0  0  0  0  0  0  0  0  0  0  0
   17.3067   -7.7236   -2.7894 C   0  0  0  0  0  0  0  0  0  0  0  0
   16.6328   -6.7605   -3.5226 C   0  0  0  0  0  0  0  0  0  0  0  0
   15.2808   -6.9721   -3.3053 N   0  0  0  0  0  0  0  0  0  0  0  0
   17.1843   -5.7284   -4.3648 C   0  0  0  0  0  0  0  0  0  0  0  0
   18.6814   -5.6567   -4.4985 C   0  0  0  0  0  0  0  0  0  0  0  0
   19.4205   -4.6197   -3.9063 C   0  0  0  0  0  0  0  0  0  0  0  0
   20.8162   -4.5950   -4.0425 C   0  0  0  0  0  0  0  0  0  0  0  0
   21.7366   -3.1955   -3.3482 S   0  0  0  0  0  0  0  0  0  0  0  0
   21.2582   -2.0845   -4.1648 O   0  0  0  0  0  0  0  0  0  0  0  0
   21.3052   -3.1929   -1.9540 O   0  0  0  0  0  0  0  0  0  0  0  0
   23.1350   -3.5648   -3.5605 O   0  5  0  0  0  0  0  0  0  0  0  0
   21.4960   -5.6145   -4.7161 C   0  0  0  0  0  0  0  0  0  0  0  0
   20.7690   -6.6545   -5.2894 C   0  0  0  0  0  0  0  0  0  0  0  0
   19.3775   -6.6611   -5.1934 C   0  0  0  0  0  0  0  0  0  0  0  0
   18.7145   -7.6743   -5.7733 F   0  0  0  0  0  0  0  0  0  0  0  0
   16.4515   -4.8364   -5.0762 C   0  0  0  0  0  0  0  0  0  0  0  0
   15.0688   -4.7033   -5.1539 N   0  0  0  0  0  0  0  0  0  0  0  0
   14.8526   -3.6987   -5.9698 C   0  0  0  0  0  0  0  0  0  0  0  0
   13.5400   -3.1215   -6.4305 C   0  0  0  0  0  0  0  0  0  0  0  0
   13.5088   -1.9635   -7.3659 C   0  0  0  0  0  0  0  0  0  0  0  0
   13.9231   -2.1047   -8.6993 C   0  0  0  0  0  0  0  0  0  0  0  0
   13.9301   -0.9882   -9.5495 C   0  0  0  0  0  0  0  0  0  0  0  0
   14.5659   -1.1829  -11.2370 S   0  0  0  0  0  0  0  0  0  0  0  0
   15.9601   -1.5325  -10.9895 O   0  0  0  0  0  0  0  0  0  0  0  0
   13.7189   -2.2493  -11.7608 O   0  0  0  0  0  0  0  0  0  0  0  0
   14.3479    0.1321  -11.8360 O   0  5  0  0  0  0  0  0  0  0  0  0
   13.4875    0.2618   -9.1093 C   0  0  0  0  0  0  0  0  0  0  0  0
   13.0544    0.4034   -7.7943 C   0  0  0  0  0  0  0  0  0  0  0  0
   13.0827   -0.6954   -6.9341 C   0  0  0  0  0  0  0  0  0  0  0  0
   12.6711   -0.5122   -5.6694 F   0  0  0  0  0  0  0  0  0  0  0  0
   12.3898   -3.6592   -5.9772 C   0  0  0  0  0  0  0  0  0  0  0  0
   11.0485   -3.1993   -6.3245 C   0  0  0  0  0  0  0  0  0  0  0  0
   10.1438   -3.9363   -5.6595 C   0  0  0  0  0  0  0  0  0  0  0  0
   10.8409   -4.9547   -4.8703 C   0  0  0  0  0  0  0  0  0  0  0  0
   12.1695   -4.7089   -5.1152 N   0  0  0  0  0  0  0  0  0  0  0  0
   16.0752   -3.0676   -6.4866 C   0  0  0  0  0  0  0  0  0  0  0  0
   17.0195   -3.8148   -5.9312 C   0  0  0  0  0  0  0  0  0  0  0  0
   11.3451   -8.5269   -1.9473 C   0  0  0  0  0  0  0  0  0  0  0  0
   10.3522   -7.8856   -2.5472 C   0  0  0  0  0  0  0  0  0  0  0  0
    8.1421   -5.6005   -2.7753 C   0  0  0  0  0  0  0  0  0  0  0  0
    6.7512   -5.6088   -2.6637 C   0  0  0  0  0  0  0  0  0  0  0  0
    2.1124    1.3719    1.5585 H   0  0  0  0  0  0  0  0  0  0  0  0
    3.3918    1.4744    0.2763 H   0  0  0  0  0  0  0  0  0  0  0  0
    0.3250   -2.8098    2.5655 H   0  0  0  0  0  0  0  0  0  0  0  0
    0.2914   -3.0923    5.4853 H   0  0  0  0  0  0  0  0  0  0  0  0
    0.1681   -4.4641    4.4028 H   0  0  0  0  0  0  0  0  0  0  0  0
   -2.0351   -5.2790    4.3747 H   0  0  0  0  0  0  0  0  0  0  0  0
   -4.4345   -4.9449    4.2908 H   0  0  0  0  0  0  0  0  0  0  0  0
   -5.3523   -2.6971    4.3108 H   0  0  0  0  0  0  0  0  0  0  0  0
   -1.4682   -1.1085    4.5145 H   0  0  0  0  0  0  0  0  0  0  0  0
    4.2731    1.9674    4.5133 H   0  0  0  0  0  0  0  0  0  0  0  0
    5.5328    0.9567    4.0135 H   0  0  0  0  0  0  0  0  0  0  0  0
    5.0093    1.3681    6.6644 H   0  0  0  0  0  0  0  0  0  0  0  0
    5.6086   -0.1691    6.1500 H   0  0  0  0  0  0  0  0  0  0  0  0
    3.6249   -0.9250    7.1661 H   0  0  0  0  0  0  0  0  0  0  0  0
    2.7993    0.5374    6.9819 H   0  0  0  0  0  0  0  0  0  0  0  0
    3.5491   -1.3245   -0.1679 H   0  0  0  0  0  0  0  0  0  0  0  0
    0.9185   -2.0145   -1.2286 H   0  0  0  0  0  0  0  0  0  0  0  0
    2.2992   -3.1038   -0.9946 H   0  0  0  0  0  0  0  0  0  0  0  0
    2.0785   -1.0084   -3.1053 H   0  0  0  0  0  0  0  0  0  0  0  0
    1.8639   -2.7749   -3.3034 H   0  0  0  0  0  0  0  0  0  0  0  0
    4.3819   -1.3432   -2.6415 H   0  0  0  0  0  0  0  0  0  0  0  0
    3.9345   -2.2058   -4.1513 H   0  0  0  0  0  0  0  0  0  0  0  0
    4.3852   -3.4891   -1.5102 H   0  0  0  0  0  0  0  0  0  0  0  0
    5.5198   -3.4448   -2.8738 H   0  0  0  0  0  0  0  0  0  0  0  0
    2.9073   -4.6926   -3.0801 H   0  0  0  0  0  0  0  0  0  0  0  0
    5.9828   -6.4372   -5.8216 H   0  0  0  0  0  0  0  0  0  0  0  0
    8.4022   -6.5449   -5.9830 H   0  0  0  0  0  0  0  0  0  0  0  0
   12.9958  -11.1212   -2.4305 H   0  0  0  0  0  0  0  0  0  0  0  0
   13.8254  -12.6923    1.3962 H   0  0  0  0  0  0  0  0  0  0  0  0
   14.7086  -10.5336    2.0863 H   0  0  0  0  0  0  0  0  0  0  0  0
   16.5706   -9.3709   -1.5828 H   0  0  0  0  0  0  0  0  0  0  0  0
   18.3317   -7.8191   -2.7166 H   0  0  0  0  0  0  0  0  0  0  0  0
   14.5551   -6.4315   -3.6931 H   0  0  0  0  0  0  0  0  0  0  0  0
   18.9387   -3.8790   -3.3732 H   0  0  0  0  0  0  0  0  0  0  0  0
   22.5254   -5.5963   -4.7876 H   0  0  0  0  0  0  0  0  0  0  0  0
   21.2578   -7.4174   -5.7834 H   0  0  0  0  0  0  0  0  0  0  0  0
   14.2217   -3.0268   -9.0536 H   0  0  0  0  0  0  0  0  0  0  0  0
   13.4818    1.0699   -9.7512 H   0  0  0  0  0  0  0  0  0  0  0  0
   12.7137    1.3171   -7.4566 H   0  0  0  0  0  0  0  0  0  0  0  0
   10.8302   -2.4303   -6.9771 H   0  0  0  0  0  0  0  0  0  0  0  0
    9.1208   -3.8059   -5.6983 H   0  0  0  0  0  0  0  0  0  0  0  0
   12.8971   -5.2350   -4.7114 H   0  0  0  0  0  0  0  0  0  0  0  0
   16.1731   -2.2560   -7.1164 H   0  0  0  0  0  0  0  0  0  0  0  0
   18.0311   -3.6848   -6.0884 H   0  0  0  0  0  0  0  0  0  0  0  0
   11.2178   -9.2866   -1.2605 H   0  0  0  0  0  0  0  0  0  0  0  0
    9.3359   -8.0531   -2.4824 H   0  0  0  0  0  0  0  0  0  0  0  0
    8.7203   -5.3596   -1.9551 H   0  0  0  0  0  0  0  0  0  0  0  0
    6.3055   -5.4395   -1.7484 H   0  0  0  0  0  0  0  0  0  0  0  0
  1  2  2  0  0  0  0
  2  3  1  0  0  0  0
  2 23  1  0  0  0  0
  3  4  1  0  0  0  0
  3 94  1  0  0  0  0
  3 95  1  0  0  0  0
  4  5  1  0  0  0  0
  5  6  1  0  0  0  0
  5 19  2  0  0  0  0
  6  7  2  0  0  0  0
  7  8  1  0  0  0  0
  7 17  1  0  0  0  0
  8  9  1  0  0  0  0
  8 96  1  0  0  0  0
  9 10  1  0  0  0  0
  9 97  1  0  0  0  0
  9 98  1  0  0  0  0
 10 11  1  0  0  0  0
 10 16  2  0  0  0  0
 11 12  2  0  0  0  0
 11 99  1  0  0  0  0
 12 13  1  0  0  0  0
 12100  1  0  0  0  0
 13 14  2  0  0  0  0
 13101  1  0  0  0  0
 14 15  1  0  0  0  0
 14 16  1  0  0  0  0
 16102  1  0  0  0  0
 17 18  2  0  0  0  0
 18 19  1  0  0  0  0
 18 22  1  0  0  0  0
 19 20  1  0  0  0  0
 20 21  1  0  0  0  0
 20103  1  0  0  0  0
 20104  1  0  0  0  0
 21 22  1  0  0  0  0
 21105  1  0  0  0  0
 21106  1  0  0  0  0
 22107  1  0  0  0  0
 22108  1  0  0  0  0
 23 24  1  0  0  0  0
 23109  1  0  0  0  0
 24 25  1  0  0  0  0
 24110  1  0  0  0  0
 24111  1  0  0  0  0
 25 26  1  0  0  0  0
 25112  1  0  0  0  0
 25113  1  0  0  0  0
 26 27  1  0  0  0  0
 26114  1  0  0  0  0
 26115  1  0  0  0  0
 27 28  1  0  0  0  0
 27116  1  0  0  0  0
 27117  1  0  0  0  0
 28 29  1  0  0  0  0
 28118  1  0  0  0  0
 29 30  2  0  0  0  0
 29 31  1  0  0  0  0
 31 32  1  0  0  0  0
 31 93  2  0  0  0  0
 32 33  2  0  0  0  0
 32119  1  0  0  0  0
 33 34  1  0  0  0  0
 33120  1  0  0  0  0
 34 35  1  0  0  0  0
 34 92  2  0  0  0  0
 35 36  1  0  0  0  0
 35 86  2  0  0  0  0
 36 37  2  0  0  0  0
 36 91  1  0  0  0  0
 37 38  1  0  0  0  0
 38 39  2  0  0  0  0
 38 90  1  0  0  0  0
 39 40  1  0  0  0  0
 39 51  1  0  0  0  0
 40 41  1  0  0  0  0
 40 49  2  0  0  0  0
 41 42  2  0  0  0  0
 41121  1  0  0  0  0
 42 43  1  0  0  0  0
 42 47  1  0  0  0  0
 43 44  2  0  0  0  0
 43 45  2  0  0  0  0
 43 46  1  0  0  0  0
 47 48  2  0  0  0  0
 47122  1  0  0  0  0
 48 49  1  0  0  0  0
 48123  1  0  0  0  0
 49 50  1  0  0  0  0
 51 52  2  0  0  0  0
 51 55  1  0  0  0  0
 52 53  1  0  0  0  0
 52124  1  0  0  0  0
 53 54  2  0  0  0  0
 53125  1  0  0  0  0
 54 55  1  0  0  0  0
 54 56  1  0  0  0  0
 55126  1  0  0  0  0
 56 57  1  0  0  0  0
 56 68  2  0  0  0  0
 57 58  1  0  0  0  0
 57 66  2  0  0  0  0
 58 59  2  0  0  0  0
 58127  1  0  0  0  0
 59 60  1  0  0  0  0
 59 64  1  0  0  0  0
 60 61  2  0  0  0  0
 60 62  2  0  0  0  0
 60 63  1  0  0  0  0
 64 65  2  0  0  0  0
 64128  1  0  0  0  0
 65 66  1  0  0  0  0
 65129  1  0  0  0  0
 66 67  1  0  0  0  0
 68 69  1  0  0  0  0
 68 89  1  0  0  0  0
 69 70  2  0  0  0  0
 70 71  1  0  0  0  0
 70 88  1  0  0  0  0
 71 72  1  0  0  0  0
 71 83  2  0  0  0  0
 72 73  1  0  0  0  0
 72 81  2  0  0  0  0
 73 74  2  0  0  0  0
 73130  1  0  0  0  0
 74 75  1  0  0  0  0
 74 79  1  0  0  0  0
 75 76  2  0  0  0  0
 75 77  2  0  0  0  0
 75 78  1  0  0  0  0
 79 80  2  0  0  0  0
 79131  1  0  0  0  0
 80 81  1  0  0  0  0
 80132  1  0  0  0  0
 81 82  1  0  0  0  0
 83 84  1  0  0  0  0
 83 87  1  0  0  0  0
 84 85  2  0  0  0  0
 84133  1  0  0  0  0
 85 86  1  0  0  0  0
 85134  1  0  0  0  0
 86 87  1  0  0  0  0
 87135  1  0  0  0  0
 88 89  2  0  0  0  0
 88136  1  0  0  0  0
 89137  1  0  0  0  0
 90 91  2  0  0  0  0
 90138  1  0  0  0  0
 91139  1  0  0  0  0
 92 93  1  0  0  0  0
 92140  1  0  0  0  0
 93141  1  0  0  0  0
M  CHG  3  46  -1  63  -1  78  -1
M  END
$$$$
