5_1_6630
 OpenBabel04152301373D

151161  0  0  1  0  0  0  0  0999 V2000
    0.4116    0.6874    5.6961 C   0  0  0  0  0  0  0  0  0  0  0  0
   -0.9777    0.5122    5.0689 C   0  0  0  0  0  0  0  0  0  0  0  0
   -1.8234    1.7384    5.4225 C   0  0  0  0  0  0  0  0  0  0  0  0
   -0.7852    0.3485    3.6364 N   0  3  0  0  0  0  0  0  0  0  0  0
   -1.6906   -0.4522    2.7752 C   0  0  2  0  0  0  0  0  0  0  0  0
   -1.2434   -0.1357    1.3077 C   0  0  0  0  0  0  0  0  0  0  0  0
   -1.9859    0.4306    0.5032 O   0  0  0  0  0  0  0  0  0  0  0  0
    0.0321   -0.4591    0.9011 N   0  0  0  0  0  0  0  0  0  0  0  0
    1.1392   -1.0293    1.6631 C   0  0  0  0  0  0  0  0  0  0  0  0
    1.5247   -2.4252    1.1715 C   0  0  0  0  0  0  0  0  0  0  0  0
    2.2797   -2.4440   -0.1549 C   0  0  0  0  0  0  0  0  0  0  0  0
    3.5840   -1.6552   -0.1628 C   0  0  0  0  0  0  0  0  0  0  0  0
    4.5580   -2.1374    0.8055 N   0  0  0  0  0  0  0  0  0  0  0  0
    5.9168   -2.2972    0.6518 C   0  0  0  0  0  0  0  0  0  0  0  0
    6.5726   -2.8341    1.5341 O   0  0  0  0  0  0  0  0  0  0  0  0
    6.5640   -1.8531   -0.6052 C   0  0  0  0  0  0  0  0  0  0  0  0
    7.4682   -2.7084   -1.2392 C   0  0  0  0  0  0  0  0  0  0  0  0
    8.0061   -2.3498   -2.4780 C   0  0  0  0  0  0  0  0  0  0  0  0
    7.6090   -1.1597   -3.1097 C   0  0  0  0  0  0  0  0  0  0  0  0
    8.1225   -0.7880   -4.4552 C   0  0  0  0  0  0  0  0  0  0  0  0
    8.9428    0.4630   -4.6261 C   0  0  0  0  0  0  0  0  0  0  0  0
    9.4169    1.0016   -5.7203 N   0  0  0  0  0  0  0  0  0  0  0  0
   10.0528    2.1730   -5.3217 C   0  0  0  0  0  0  0  0  0  0  0  0
   10.7724    3.0474   -6.0688 C   0  0  0  0  0  0  0  0  0  0  0  0
   11.3545    4.2484   -5.3592 C   0  0  0  0  0  0  0  0  0  0  0  0
   12.2915    4.1084   -4.3193 C   0  0  0  0  0  0  0  0  0  0  0  0
   12.7148    5.2353   -3.5991 C   0  0  0  0  0  0  0  0  0  0  0  0
   13.6680    4.9806   -2.0769 S   0  0  0  0  0  0  0  0  0  0  0  0
   12.7478    4.1657   -1.2868 O   0  0  0  0  0  0  0  0  0  0  0  0
   14.8647    4.3042   -2.5629 O   0  0  0  0  0  0  0  0  0  0  0  0
   13.8773    6.3363   -1.5727 O   0  5  0  0  0  0  0  0  0  0  0  0
   12.3143    6.5210   -3.9674 C   0  0  0  0  0  0  0  0  0  0  0  0
   11.4354    6.6751   -5.0355 C   0  0  0  0  0  0  0  0  0  0  0  0
   10.9408    5.5488   -5.6974 C   0  0  0  0  0  0  0  0  0  0  0  0
   10.0335    5.7479   -6.6664 F   0  0  0  0  0  0  0  0  0  0  0  0
   10.9881    2.8992   -7.4879 C   0  0  0  0  0  0  0  0  0  0  0  0
   11.7348    3.6990   -8.3356 C   0  0  0  0  0  0  0  0  0  0  0  0
   11.6001    3.2059   -9.6383 C   0  0  0  0  0  0  0  0  0  0  0  0
   10.8351    2.0513   -9.5951 C   0  0  0  0  0  0  0  0  0  0  0  0
   10.4536    1.8839   -8.2721 N   0  0  0  0  0  0  0  0  0  0  0  0
   10.4915    1.1603  -10.6790 C   0  0  0  0  0  0  0  0  0  0  0  0
   11.0721    1.4388  -12.0450 C   0  0  0  0  0  0  0  0  0  0  0  0
   10.2611    1.7623  -13.1469 C   0  0  0  0  0  0  0  0  0  0  0  0
   10.8388    1.9290  -14.4149 C   0  0  0  0  0  0  0  0  0  0  0  0
    9.7474    2.1318  -15.8497 S   0  0  0  0  0  0  0  0  0  0  0  0
    8.9225    0.9303  -15.7762 O   0  0  0  0  0  0  0  0  0  0  0  0
    9.0701    3.3893  -15.5506 O   0  0  0  0  0  0  0  0  0  0  0  0
   10.6726    2.1805  -16.9805 O   0  5  0  0  0  0  0  0  0  0  0  0
   12.2229    1.8606  -14.5944 C   0  0  0  0  0  0  0  0  0  0  0  0
   13.0367    1.5881  -13.4989 C   0  0  0  0  0  0  0  0  0  0  0  0
   12.4615    1.3572  -12.2488 C   0  0  0  0  0  0  0  0  0  0  0  0
   13.2846    1.0500  -11.2333 F   0  0  0  0  0  0  0  0  0  0  0  0
    9.7222    0.0486  -10.5510 C   0  0  0  0  0  0  0  0  0  0  0  0
    9.1143   -0.4761   -9.4132 N   0  0  0  0  0  0  0  0  0  0  0  0
    8.4800   -1.5549   -9.8124 C   0  0  0  0  0  0  0  0  0  0  0  0
    7.6862   -2.5465   -8.9987 C   0  0  0  0  0  0  0  0  0  0  0  0
    7.0085   -3.7001   -9.6581 C   0  0  0  0  0  0  0  0  0  0  0  0
    7.7514   -4.7006  -10.3053 C   0  0  0  0  0  0  0  0  0  0  0  0
    7.0903   -5.7234  -11.0030 C   0  0  0  0  0  0  0  0  0  0  0  0
    8.0809   -6.8932  -11.9732 S   0  0  0  0  0  0  0  0  0  0  0  0
    8.7877   -5.9999  -12.8837 O   0  0  0  0  0  0  0  0  0  0  0  0
    8.8915   -7.5313  -10.9413 O   0  0  0  0  0  0  0  0  0  0  0  0
    7.0772   -7.7541  -12.5954 O   0  5  0  0  0  0  0  0  0  0  0  0
    5.6966   -5.8095  -11.0145 C   0  0  0  0  0  0  0  0  0  0  0  0
    4.9533   -4.8449  -10.3411 C   0  0  0  0  0  0  0  0  0  0  0  0
    5.6061   -3.7951   -9.6923 C   0  0  0  0  0  0  0  0  0  0  0  0
    4.8476   -2.8689   -9.0843 F   0  0  0  0  0  0  0  0  0  0  0  0
    7.6018   -2.3737   -7.6644 C   0  0  0  0  0  0  0  0  0  0  0  0
    6.8833   -3.2473   -6.7423 C   0  0  0  0  0  0  0  0  0  0  0  0
    6.9760   -2.7476   -5.4993 C   0  0  0  0  0  0  0  0  0  0  0  0
    7.8014   -1.5379   -5.5284 C   0  0  0  0  0  0  0  0  0  0  0  0
    8.1243   -1.3914   -6.8545 N   0  0  0  0  0  0  0  0  0  0  0  0
    8.5821   -1.8144  -11.2538 C   0  0  0  0  0  0  0  0  0  0  0  0
    9.3887   -0.8396  -11.6455 C   0  0  0  0  0  0  0  0  0  0  0  0
    9.8387    2.2994   -3.8958 C   0  0  0  0  0  0  0  0  0  0  0  0
    9.2378    1.2271   -3.4048 C   0  0  0  0  0  0  0  0  0  0  0  0
    6.7235   -0.2985   -2.4440 C   0  0  0  0  0  0  0  0  0  0  0  0
    6.2539   -0.6144   -1.1729 C   0  0  0  0  0  0  0  0  0  0  0  0
   -3.1917   -0.2240    3.0095 C   0  0  0  0  0  0  0  0  0  0  0  0
   -3.5729   -1.1866    4.1493 C   0  0  0  0  0  0  0  0  0  0  0  0
   -2.6280   -2.4135    4.0141 C   0  0  2  0  0  0  0  0  0  0  0  0
   -2.0485   -3.0438    5.2247 N   0  3  2  0  0  0  0  0  0  0  0  0
   -2.7149   -2.7417    6.4781 C   0  0  0  0  0  0  0  0  0  0  0  0
   -0.5898   -3.1753    5.2801 C   0  0  0  0  0  0  0  0  0  0  0  0
    0.0969   -3.4508    6.6272 C   0  0  0  0  0  0  0  0  0  0  0  0
    1.5241   -3.8398    6.2299 C   0  0  0  0  0  0  0  0  0  0  0  0
    1.4214   -4.4035    4.8127 C   0  0  0  0  0  0  0  0  0  0  0  0
   -0.0663   -4.3796    4.4762 C   0  0  0  0  0  0  0  0  0  0  0  0
   -1.6742   -1.9884    2.8886 C   0  0  0  0  0  0  0  0  0  0  0  0
    0.3122    0.8113    6.7542 H   0  0  0  0  0  0  0  0  0  0  0  0
    0.8850    1.5515    5.2787 H   0  0  0  0  0  0  0  0  0  0  0  0
    1.0065   -0.1784    5.4927 H   0  0  0  0  0  0  0  0  0  0  0  0
   -1.4974   -0.3471    5.4383 H   0  0  0  0  0  0  0  0  0  0  0  0
   -1.3355    2.6224    5.0684 H   0  0  0  0  0  0  0  0  0  0  0  0
   -1.9404    1.7967    6.4845 H   0  0  0  0  0  0  0  0  0  0  0  0
   -2.7854    1.6531    4.9618 H   0  0  0  0  0  0  0  0  0  0  0  0
    0.1416   -0.0625    3.5247 H   0  0  0  0  0  0  0  0  0  0  0  0
   -0.9744    1.2929    3.3007 H   0  0  0  0  0  0  0  0  0  0  0  0
    0.2268   -0.2784   -0.0469 H   0  0  0  0  0  0  0  0  0  0  0  0
    0.8515   -1.0941    2.6917 H   0  0  0  0  0  0  0  0  0  0  0  0
    1.9882   -0.3910    1.5340 H   0  0  0  0  0  0  0  0  0  0  0  0
    0.6282   -2.9973    1.0537 H   0  0  0  0  0  0  0  0  0  0  0  0
    2.1885   -2.8331    1.9049 H   0  0  0  0  0  0  0  0  0  0  0  0
    1.6391   -2.0344   -0.9077 H   0  0  0  0  0  0  0  0  0  0  0  0
    2.5455   -3.4648   -0.3342 H   0  0  0  0  0  0  0  0  0  0  0  0
    3.3628   -0.6322    0.0595 H   0  0  0  0  0  0  0  0  0  0  0  0
    4.0186   -1.7738   -1.1333 H   0  0  0  0  0  0  0  0  0  0  0  0
    4.1969   -2.3819    1.6881 H   0  0  0  0  0  0  0  0  0  0  0  0
    7.7375   -3.6002   -0.7952 H   0  0  0  0  0  0  0  0  0  0  0  0
    8.7002   -2.9638   -2.9321 H   0  0  0  0  0  0  0  0  0  0  0  0
   12.6677    3.1761   -4.0861 H   0  0  0  0  0  0  0  0  0  0  0  0
   12.6649    7.3453   -3.4550 H   0  0  0  0  0  0  0  0  0  0  0  0
   11.1497    7.6195   -5.3379 H   0  0  0  0  0  0  0  0  0  0  0  0
   12.2951    4.5189   -8.0549 H   0  0  0  0  0  0  0  0  0  0  0  0
   12.0028    3.6307  -10.4882 H   0  0  0  0  0  0  0  0  0  0  0  0
    9.8865    1.1521   -7.9372 H   0  0  0  0  0  0  0  0  0  0  0  0
    9.2429    1.8770  -13.0235 H   0  0  0  0  0  0  0  0  0  0  0  0
   12.6365    2.0103  -15.5279 H   0  0  0  0  0  0  0  0  0  0  0  0
   14.0621    1.5569  -13.6107 H   0  0  0  0  0  0  0  0  0  0  0  0
    8.7826   -4.6839  -10.2680 H   0  0  0  0  0  0  0  0  0  0  0  0
    5.2242   -6.5781  -11.5156 H   0  0  0  0  0  0  0  0  0  0  0  0
    3.9233   -4.9053  -10.3214 H   0  0  0  0  0  0  0  0  0  0  0  0
    6.3835   -4.1115   -7.0038 H   0  0  0  0  0  0  0  0  0  0  0  0
    6.5359   -3.1515   -4.6578 H   0  0  0  0  0  0  0  0  0  0  0  0
    8.6783   -0.6521   -7.1947 H   0  0  0  0  0  0  0  0  0  0  0  0
    8.1413   -2.5603  -11.8144 H   0  0  0  0  0  0  0  0  0  0  0  0
    9.7364   -0.7269  -12.6106 H   0  0  0  0  0  0  0  0  0  0  0  0
   10.1183    3.1192   -3.3348 H   0  0  0  0  0  0  0  0  0  0  0  0
    9.0306    0.9895   -2.4221 H   0  0  0  0  0  0  0  0  0  0  0  0
    6.4184    0.5754   -2.9004 H   0  0  0  0  0  0  0  0  0  0  0  0
    5.6780    0.0644   -0.6507 H   0  0  0  0  0  0  0  0  0  0  0  0
   -3.7485   -0.4512    2.1245 H   0  0  0  0  0  0  0  0  0  0  0  0
   -3.4077    0.7944    3.2568 H   0  0  0  0  0  0  0  0  0  0  0  0
   -4.5937   -1.4919    4.0513 H   0  0  0  0  0  0  0  0  0  0  0  0
   -3.4702   -0.7186    5.1060 H   0  0  0  0  0  0  0  0  0  0  0  0
   -3.1848   -3.2966    3.7795 H   0  0  0  0  0  0  0  0  0  0  0  0
   -2.3089   -4.0182    5.0724 H   0  0  0  0  0  0  0  0  0  0  0  0
   -2.5154   -1.7269    6.7526 H   0  0  0  0  0  0  0  0  0  0  0  0
   -2.3508   -3.3961    7.2424 H   0  0  0  0  0  0  0  0  0  0  0  0
   -3.7698   -2.8794    6.3634 H   0  0  0  0  0  0  0  0  0  0  0  0
   -0.3552   -2.1940    4.9237 H   0  0  0  0  0  0  0  0  0  0  0  0
   -0.3871   -4.2516    7.1462 H   0  0  0  0  0  0  0  0  0  0  0  0
    0.0636   -2.6119    7.2905 H   0  0  0  0  0  0  0  0  0  0  0  0
    1.9085   -4.5810    6.8990 H   0  0  0  0  0  0  0  0  0  0  0  0
    2.1880   -3.0018    6.2739 H   0  0  0  0  0  0  0  0  0  0  0  0
    1.7970   -5.4049    4.7796 H   0  0  0  0  0  0  0  0  0  0  0  0
    1.9974   -3.8333    4.1141 H   0  0  0  0  0  0  0  0  0  0  0  0
   -0.2201   -4.2366    3.4270 H   0  0  0  0  0  0  0  0  0  0  0  0
   -0.5658   -5.2944    4.7179 H   0  0  0  0  0  0  0  0  0  0  0  0
   -0.6825   -2.3215    3.1131 H   0  0  0  0  0  0  0  0  0  0  0  0
   -1.9883   -2.4239    1.9631 H   0  0  0  0  0  0  0  0  0  0  0  0
  1  2  1  0  0  0  0
  1 90  1  0  0  0  0
  1 91  1  0  0  0  0
  1 92  1  0  0  0  0
  2  3  1  0  0  0  0
  2  4  1  0  0  0  0
  2 93  1  0  0  0  0
  3 94  1  0  0  0  0
  3 95  1  0  0  0  0
  3 96  1  0  0  0  0
  4 97  1  0  0  0  0
  4 98  1  0  0  0  0
  5 79  1  0  0  0  0
  5 89  1  0  0  0  0
  5  6  1  6  0  0  0
  5  4  1  0  0  0  0
  6  7  2  0  0  0  0
  6  8  1  0  0  0  0
  8  9  1  0  0  0  0
  8 99  1  0  0  0  0
  9 10  1  0  0  0  0
  9100  1  0  0  0  0
  9101  1  0  0  0  0
 10 11  1  0  0  0  0
 10102  1  0  0  0  0
 10103  1  0  0  0  0
 11 12  1  0  0  0  0
 11104  1  0  0  0  0
 11105  1  0  0  0  0
 12 13  1  0  0  0  0
 12106  1  0  0  0  0
 12107  1  0  0  0  0
 13 14  1  0  0  0  0
 13108  1  0  0  0  0
 14 15  2  0  0  0  0
 14 16  1  0  0  0  0
 16 17  1  0  0  0  0
 16 78  2  0  0  0  0
 17 18  2  0  0  0  0
 17109  1  0  0  0  0
 18 19  1  0  0  0  0
 18110  1  0  0  0  0
 19 20  1  0  0  0  0
 19 77  2  0  0  0  0
 20 21  1  0  0  0  0
 20 71  2  0  0  0  0
 21 22  2  0  0  0  0
 21 76  1  0  0  0  0
 22 23  1  0  0  0  0
 23 24  2  0  0  0  0
 23 75  1  0  0  0  0
 24 25  1  0  0  0  0
 24 36  1  0  0  0  0
 25 26  1  0  0  0  0
 25 34  2  0  0  0  0
 26 27  2  0  0  0  0
 26111  1  0  0  0  0
 27 28  1  0  0  0  0
 27 32  1  0  0  0  0
 28 29  2  0  0  0  0
 28 30  2  0  0  0  0
 28 31  1  0  0  0  0
 32 33  2  0  0  0  0
 32112  1  0  0  0  0
 33 34  1  0  0  0  0
 33113  1  0  0  0  0
 34 35  1  0  0  0  0
 36 37  2  0  0  0  0
 36 40  1  0  0  0  0
 37 38  1  0  0  0  0
 37114  1  0  0  0  0
 38 39  2  0  0  0  0
 38115  1  0  0  0  0
 39 40  1  0  0  0  0
 39 41  1  0  0  0  0
 40116  1  0  0  0  0
 41 42  1  0  0  0  0
 41 53  2  0  0  0  0
 42 43  1  0  0  0  0
 42 51  2  0  0  0  0
 43 44  2  0  0  0  0
 43117  1  0  0  0  0
 44 45  1  0  0  0  0
 44 49  1  0  0  0  0
 45 46  2  0  0  0  0
 45 47  2  0  0  0  0
 45 48  1  0  0  0  0
 49 50  2  0  0  0  0
 49118  1  0  0  0  0
 50 51  1  0  0  0  0
 50119  1  0  0  0  0
 51 52  1  0  0  0  0
 53 54  1  0  0  0  0
 53 74  1  0  0  0  0
 54 55  2  0  0  0  0
 55 56  1  0  0  0  0
 55 73  1  0  0  0  0
 56 57  1  0  0  0  0
 56 68  2  0  0  0  0
 57 58  1  0  0  0  0
 57 66  2  0  0  0  0
 58 59  2  0  0  0  0
 58120  1  0  0  0  0
 59 60  1  0  0  0  0
 59 64  1  0  0  0  0
 60 61  2  0  0  0  0
 60 62  2  0  0  0  0
 60 63  1  0  0  0  0
 64 65  2  0  0  0  0
 64121  1  0  0  0  0
 65 66  1  0  0  0  0
 65122  1  0  0  0  0
 66 67  1  0  0  0  0
 68 69  1  0  0  0  0
 68 72  1  0  0  0  0
 69 70  2  0  0  0  0
 69123  1  0  0  0  0
 70 71  1  0  0  0  0
 70124  1  0  0  0  0
 71 72  1  0  0  0  0
 72125  1  0  0  0  0
 73 74  2  0  0  0  0
 73126  1  0  0  0  0
 74127  1  0  0  0  0
 75 76  2  0  0  0  0
 75128  1  0  0  0  0
 76129  1  0  0  0  0
 77 78  1  0  0  0  0
 77130  1  0  0  0  0
 78131  1  0  0  0  0
 79 80  1  0  0  0  0
 79132  1  0  0  0  0
 79133  1  0  0  0  0
 80 81  1  0  0  0  0
 80134  1  0  0  0  0
 80135  1  0  0  0  0
 81 89  1  0  0  0  0
 81 82  1  0  0  0  0
 81136  1  6  0  0  0
 82 83  1  0  0  0  0
 82 84  1  0  0  0  0
 82137  1  6  0  0  0
 83138  1  0  0  0  0
 83139  1  0  0  0  0
 83140  1  0  0  0  0
 84 85  1  0  0  0  0
 84 88  1  0  0  0  0
 84141  1  0  0  0  0
 85 86  1  0  0  0  0
 85142  1  0  0  0  0
 85143  1  0  0  0  0
 86 87  1  0  0  0  0
 86144  1  0  0  0  0
 86145  1  0  0  0  0
 87 88  1  0  0  0  0
 87146  1  0  0  0  0
 87147  1  0  0  0  0
 88148  1  0  0  0  0
 88149  1  0  0  0  0
 89150  1  0  0  0  0
 89151  1  0  0  0  0
M  CHG  5   4   1  31  -1  48  -1  63  -1  82   1
M  END
$$$$
