5_1_2404
 OpenBabel04152301373D

127136  0  0  1  0  0  0  0  0999 V2000
   -1.7280    1.2997    1.6704 C   0  0  0  0  0  0  0  0  0  0  0  0
   -0.4999    0.5564    1.2959 C   0  0  0  0  0  0  0  0  0  0  0  0
   -0.2290   -0.8244    1.4539 C   0  0  0  0  0  0  0  0  0  0  0  0
    0.9438   -1.0572    0.7656 C   0  0  0  0  0  0  0  0  0  0  0  0
    1.6848   -2.1227    0.4646 O   0  0  0  0  0  0  0  0  0  0  0  0
    1.1192   -3.4057    0.2287 C   0  0  1  0  0  0  0  0  0  0  0  0
    0.2535   -4.0012    1.3352 C   0  0  0  0  0  0  0  0  0  0  0  0
    0.6504   -3.7632   -1.2087 C   0  0  0  0  0  0  0  0  0  0  0  0
    1.3532   -4.4933   -1.9205 O   0  0  0  0  0  0  0  0  0  0  0  0
   -0.5282   -3.3555   -1.7485 N   0  0  0  0  0  0  0  0  0  0  0  0
   -1.5356   -2.4409   -1.2599 C   0  0  0  0  0  0  0  0  0  0  0  0
   -1.3661   -1.0483   -1.8656 C   0  0  0  0  0  0  0  0  0  0  0  0
   -2.3535   -0.7168   -2.9814 C   0  0  0  0  0  0  0  0  0  0  0  0
   -3.8237   -0.7242   -2.5696 C   0  0  0  0  0  0  0  0  0  0  0  0
   -4.1371    0.1403   -1.4382 N   0  0  0  0  0  0  0  0  0  0  0  0
   -5.2904    0.8586   -1.2103 C   0  0  0  0  0  0  0  0  0  0  0  0
   -5.3853    1.5865   -0.2265 O   0  0  0  0  0  0  0  0  0  0  0  0
   -6.3819    0.7761   -2.2032 C   0  0  0  0  0  0  0  0  0  0  0  0
   -6.8620    1.9518   -2.7842 C   0  0  0  0  0  0  0  0  0  0  0  0
   -7.7226    1.8730   -3.8819 C   0  0  0  0  0  0  0  0  0  0  0  0
   -8.0613    0.6238   -4.4270 C   0  0  0  0  0  0  0  0  0  0  0  0
   -8.8526    0.5021   -5.6801 C   0  0  0  0  0  0  0  0  0  0  0  0
  -10.1685   -0.2256   -5.6630 C   0  0  0  0  0  0  0  0  0  0  0  0
  -10.9320   -0.5861   -6.6616 N   0  0  0  0  0  0  0  0  0  0  0  0
  -11.9748   -1.3127   -6.0961 C   0  0  0  0  0  0  0  0  0  0  0  0
  -13.0636   -1.8480   -6.7033 C   0  0  0  0  0  0  0  0  0  0  0  0
  -14.0244   -2.6278   -5.8362 C   0  0  0  0  0  0  0  0  0  0  0  0
  -14.7031   -2.0271   -4.7610 C   0  0  0  0  0  0  0  0  0  0  0  0
  -15.4593   -2.8147   -3.8806 C   0  0  0  0  0  0  0  0  0  0  0  0
  -16.0296   -2.0673   -2.3293 S   0  0  0  0  0  0  0  0  0  0  0  0
  -14.7666   -1.6547   -1.7208 O   0  0  0  0  0  0  0  0  0  0  0  0
  -16.8950   -0.9911   -2.7969 O   0  0  0  0  0  0  0  0  0  0  0  0
  -16.7104   -3.1668   -1.6487 O   0  5  0  0  0  0  0  0  0  0  0  0
  -15.6595   -4.1758   -4.1180 C   0  0  0  0  0  0  0  0  0  0  0  0
  -15.0512   -4.7653   -5.2225 C   0  0  0  0  0  0  0  0  0  0  0  0
  -14.2209   -4.0037   -6.0484 C   0  0  0  0  0  0  0  0  0  0  0  0
  -13.5882   -4.6393   -7.0471 F   0  0  0  0  0  0  0  0  0  0  0  0
  -13.3290   -1.7269   -8.1161 C   0  0  0  0  0  0  0  0  0  0  0  0
  -14.4379   -2.1520   -8.8268 C   0  0  0  0  0  0  0  0  0  0  0  0
  -14.2279   -1.8660  -10.1811 C   0  0  0  0  0  0  0  0  0  0  0  0
  -13.0167   -1.2048  -10.3095 C   0  0  0  0  0  0  0  0  0  0  0  0
  -12.4717   -1.1358   -9.0366 N   0  0  0  0  0  0  0  0  0  0  0  0
  -12.4091   -0.6676  -11.5043 C   0  0  0  0  0  0  0  0  0  0  0  0
  -13.1703   -0.7796  -12.8002 C   0  0  0  0  0  0  0  0  0  0  0  0
  -12.7236   -1.5997  -13.8504 C   0  0  0  0  0  0  0  0  0  0  0  0
  -13.4350   -1.6332  -15.0590 C   0  0  0  0  0  0  0  0  0  0  0  0
  -12.7482   -2.5745  -16.4489 S   0  0  0  0  0  0  0  0  0  0  0  0
  -11.4607   -1.9184  -16.6528 O   0  0  0  0  0  0  0  0  0  0  0  0
  -12.6950   -3.9305  -15.9122 O   0  0  0  0  0  0  0  0  0  0  0  0
  -13.7245   -2.3701  -17.5175 O   0  5  0  0  0  0  0  0  0  0  0  0
  -14.6222   -0.9132  -15.2203 C   0  0  0  0  0  0  0  0  0  0  0  0
  -15.0882   -0.1261  -14.1710 C   0  0  0  0  0  0  0  0  0  0  0  0
  -14.3570   -0.0488  -12.9855 C   0  0  0  0  0  0  0  0  0  0  0  0
  -14.8256    0.7501  -12.0134 F   0  0  0  0  0  0  0  0  0  0  0  0
  -11.2156   -0.0224  -11.5476 C   0  0  0  0  0  0  0  0  0  0  0  0
  -10.3304    0.2593  -10.5119 N   0  0  0  0  0  0  0  0  0  0  0  0
   -9.3218    0.8919  -11.0661 C   0  0  0  0  0  0  0  0  0  0  0  0
   -8.0851    1.4535  -10.4149 C   0  0  0  0  0  0  0  0  0  0  0  0
   -7.0017    2.0666  -11.2333 C   0  0  0  0  0  0  0  0  0  0  0  0
   -7.2050    3.2804  -11.9080 C   0  0  0  0  0  0  0  0  0  0  0  0
   -6.1862    3.8114  -12.7145 C   0  0  0  0  0  0  0  0  0  0  0  0
   -6.5276    5.3168  -13.6670 S   0  0  0  0  0  0  0  0  0  0  0  0
   -7.6508    4.8961  -14.4966 O   0  0  0  0  0  0  0  0  0  0  0  0
   -6.8328    6.2789  -12.6132 O   0  0  0  0  0  0  0  0  0  0  0  0
   -5.2768    5.5574  -14.3834 O   0  5  0  0  0  0  0  0  0  0  0  0
   -4.9446    3.1807  -12.8238 C   0  0  0  0  0  0  0  0  0  0  0  0
   -4.7260    1.9913  -12.1349 C   0  0  0  0  0  0  0  0  0  0  0  0
   -5.7510    1.4380  -11.3652 C   0  0  0  0  0  0  0  0  0  0  0  0
   -5.5025    0.2817  -10.7299 F   0  0  0  0  0  0  0  0  0  0  0  0
   -7.9705    1.3892   -9.0737 C   0  0  0  0  0  0  0  0  0  0  0  0
   -6.8358    1.8803   -8.2994 C   0  0  0  0  0  0  0  0  0  0  0  0
   -7.0324    1.5941   -7.0023 C   0  0  0  0  0  0  0  0  0  0  0  0
   -8.3319    0.9350   -6.8461 C   0  0  0  0  0  0  0  0  0  0  0  0
   -8.8205    0.8648   -8.1270 N   0  0  0  0  0  0  0  0  0  0  0  0
   -9.4414    1.0631  -12.5194 C   0  0  0  0  0  0  0  0  0  0  0  0
  -10.6274    0.5207  -12.7557 C   0  0  0  0  0  0  0  0  0  0  0  0
  -11.7076   -1.3886   -4.6750 C   0  0  0  0  0  0  0  0  0  0  0  0
  -10.6612   -0.6488   -4.3442 C   0  0  0  0  0  0  0  0  0  0  0  0
   -7.6219   -0.5454   -3.7845 C   0  0  0  0  0  0  0  0  0  0  0  0
   -6.8349   -0.4697   -2.6419 C   0  0  0  0  0  0  0  0  0  0  0  0
    1.3868    0.1981    0.4141 N   0  0  0  0  0  0  0  0  0  0  0  0
    2.6392    0.5416   -0.2158 C   0  0  0  0  0  0  0  0  0  0  0  0
    0.5038    1.1814    0.6749 N   0  0  0  0  0  0  0  0  0  0  0  0
   -2.4130    0.6357    2.1549 H   0  0  0  0  0  0  0  0  0  0  0  0
   -2.1838    1.7022    0.7899 H   0  0  0  0  0  0  0  0  0  0  0  0
   -1.4730    2.0973    2.3365 H   0  0  0  0  0  0  0  0  0  0  0  0
   -0.7922   -1.5139    1.9758 H   0  0  0  0  0  0  0  0  0  0  0  0
    2.0356   -3.9540    0.2951 H   0  0  0  0  0  0  0  0  0  0  0  0
   -0.6970   -3.5100    1.3477 H   0  0  0  0  0  0  0  0  0  0  0  0
    0.7379   -3.8648    2.2795 H   0  0  0  0  0  0  0  0  0  0  0  0
    0.1125   -5.0463    1.1543 H   0  0  0  0  0  0  0  0  0  0  0  0
   -0.7317   -3.7525   -2.6261 H   0  0  0  0  0  0  0  0  0  0  0  0
   -1.4541   -2.3697   -0.1954 H   0  0  0  0  0  0  0  0  0  0  0  0
   -2.4967   -2.8163   -1.5432 H   0  0  0  0  0  0  0  0  0  0  0  0
   -0.3756   -0.9758   -2.2639 H   0  0  0  0  0  0  0  0  0  0  0  0
   -1.5533   -0.3496   -1.0772 H   0  0  0  0  0  0  0  0  0  0  0  0
   -2.2246   -1.4366   -3.7626 H   0  0  0  0  0  0  0  0  0  0  0  0
   -2.1344    0.2857   -3.2847 H   0  0  0  0  0  0  0  0  0  0  0  0
   -4.0933   -1.7265   -2.3095 H   0  0  0  0  0  0  0  0  0  0  0  0
   -4.3763   -0.3466   -3.4044 H   0  0  0  0  0  0  0  0  0  0  0  0
   -3.4368    0.2209   -0.7509 H   0  0  0  0  0  0  0  0  0  0  0  0
   -6.5835    2.8707   -2.4060 H   0  0  0  0  0  0  0  0  0  0  0  0
   -8.1109    2.7359   -4.2937 H   0  0  0  0  0  0  0  0  0  0  0  0
  -14.6448   -1.0065   -4.6197 H   0  0  0  0  0  0  0  0  0  0  0  0
  -16.2498   -4.7366   -3.4839 H   0  0  0  0  0  0  0  0  0  0  0  0
  -15.2132   -5.7630   -5.4309 H   0  0  0  0  0  0  0  0  0  0  0  0
  -15.2759   -2.6025   -8.4270 H   0  0  0  0  0  0  0  0  0  0  0  0
  -14.8677   -2.1071  -10.9541 H   0  0  0  0  0  0  0  0  0  0  0  0
  -11.6034   -0.7273   -8.8166 H   0  0  0  0  0  0  0  0  0  0  0  0
  -11.8751   -2.1753  -13.7329 H   0  0  0  0  0  0  0  0  0  0  0  0
  -15.1473   -0.9646  -16.1072 H   0  0  0  0  0  0  0  0  0  0  0  0
  -15.9715    0.3984  -14.2697 H   0  0  0  0  0  0  0  0  0  0  0  0
   -8.1019    3.7816  -11.8113 H   0  0  0  0  0  0  0  0  0  0  0  0
   -4.1992    3.5913  -13.4077 H   0  0  0  0  0  0  0  0  0  0  0  0
   -3.8097    1.5201  -12.1928 H   0  0  0  0  0  0  0  0  0  0  0  0
   -6.0136    2.3694   -8.6866 H   0  0  0  0  0  0  0  0  0  0  0  0
   -6.3730    1.8048   -6.2369 H   0  0  0  0  0  0  0  0  0  0  0  0
   -9.6974    0.4755   -8.3478 H   0  0  0  0  0  0  0  0  0  0  0  0
   -8.7771    1.4926  -13.1822 H   0  0  0  0  0  0  0  0  0  0  0  0
  -11.0762    0.4890  -13.6845 H   0  0  0  0  0  0  0  0  0  0  0  0
  -12.2613   -1.9471   -4.0068 H   0  0  0  0  0  0  0  0  0  0  0  0
  -10.2892   -0.4274   -3.4074 H   0  0  0  0  0  0  0  0  0  0  0  0
   -7.8857   -1.4681   -4.1641 H   0  0  0  0  0  0  0  0  0  0  0  0
   -6.5875   -1.3263   -2.1223 H   0  0  0  0  0  0  0  0  0  0  0  0
    3.2239   -0.3439   -0.3534 H   0  0  0  0  0  0  0  0  0  0  0  0
    3.1741    1.2292    0.4054 H   0  0  0  0  0  0  0  0  0  0  0  0
    2.4480    0.9941   -1.1664 H   0  0  0  0  0  0  0  0  0  0  0  0
  1  2  1  0  0  0  0
  1 84  1  0  0  0  0
  1 85  1  0  0  0  0
  1 86  1  0  0  0  0
  2  3  1  0  0  0  0
  2 83  2  0  0  0  0
  3  4  2  0  0  0  0
  3 87  1  0  0  0  0
  4  5  1  0  0  0  0
  4 81  1  0  0  0  0
  5  6  1  0  0  0  0
  6  7  1  0  0  0  0
  6  8  1  0  0  0  0
  6 88  1  1  0  0  0
  7 89  1  0  0  0  0
  7 90  1  0  0  0  0
  7 91  1  0  0  0  0
  8  9  2  0  0  0  0
  8 10  1  0  0  0  0
 10 11  1  0  0  0  0
 10 92  1  0  0  0  0
 11 12  1  0  0  0  0
 11 93  1  0  0  0  0
 11 94  1  0  0  0  0
 12 13  1  0  0  0  0
 12 95  1  0  0  0  0
 12 96  1  0  0  0  0
 13 14  1  0  0  0  0
 13 97  1  0  0  0  0
 13 98  1  0  0  0  0
 14 15  1  0  0  0  0
 14 99  1  0  0  0  0
 14100  1  0  0  0  0
 15 16  1  0  0  0  0
 15101  1  0  0  0  0
 16 17  2  0  0  0  0
 16 18  1  0  0  0  0
 18 19  1  0  0  0  0
 18 80  2  0  0  0  0
 19 20  2  0  0  0  0
 19102  1  0  0  0  0
 20 21  1  0  0  0  0
 20103  1  0  0  0  0
 21 22  1  0  0  0  0
 21 79  2  0  0  0  0
 22 23  1  0  0  0  0
 22 73  2  0  0  0  0
 23 24  2  0  0  0  0
 23 78  1  0  0  0  0
 24 25  1  0  0  0  0
 25 26  2  0  0  0  0
 25 77  1  0  0  0  0
 26 27  1  0  0  0  0
 26 38  1  0  0  0  0
 27 28  1  0  0  0  0
 27 36  2  0  0  0  0
 28 29  2  0  0  0  0
 28104  1  0  0  0  0
 29 30  1  0  0  0  0
 29 34  1  0  0  0  0
 30 31  2  0  0  0  0
 30 32  2  0  0  0  0
 30 33  1  0  0  0  0
 34 35  2  0  0  0  0
 34105  1  0  0  0  0
 35 36  1  0  0  0  0
 35106  1  0  0  0  0
 36 37  1  0  0  0  0
 38 39  2  0  0  0  0
 38 42  1  0  0  0  0
 39 40  1  0  0  0  0
 39107  1  0  0  0  0
 40 41  2  0  0  0  0
 40108  1  0  0  0  0
 41 42  1  0  0  0  0
 41 43  1  0  0  0  0
 42109  1  0  0  0  0
 43 44  1  0  0  0  0
 43 55  2  0  0  0  0
 44 45  1  0  0  0  0
 44 53  2  0  0  0  0
 45 46  2  0  0  0  0
 45110  1  0  0  0  0
 46 47  1  0  0  0  0
 46 51  1  0  0  0  0
 47 48  2  0  0  0  0
 47 49  2  0  0  0  0
 47 50  1  0  0  0  0
 51 52  2  0  0  0  0
 51111  1  0  0  0  0
 52 53  1  0  0  0  0
 52112  1  0  0  0  0
 53 54  1  0  0  0  0
 55 56  1  0  0  0  0
 55 76  1  0  0  0  0
 56 57  2  0  0  0  0
 57 58  1  0  0  0  0
 57 75  1  0  0  0  0
 58 59  1  0  0  0  0
 58 70  2  0  0  0  0
 59 60  1  0  0  0  0
 59 68  2  0  0  0  0
 60 61  2  0  0  0  0
 60113  1  0  0  0  0
 61 62  1  0  0  0  0
 61 66  1  0  0  0  0
 62 63  2  0  0  0  0
 62 64  2  0  0  0  0
 62 65  1  0  0  0  0
 66 67  2  0  0  0  0
 66114  1  0  0  0  0
 67 68  1  0  0  0  0
 67115  1  0  0  0  0
 68 69  1  0  0  0  0
 70 71  1  0  0  0  0
 70 74  1  0  0  0  0
 71 72  2  0  0  0  0
 71116  1  0  0  0  0
 72 73  1  0  0  0  0
 72117  1  0  0  0  0
 73 74  1  0  0  0  0
 74118  1  0  0  0  0
 75 76  2  0  0  0  0
 75119  1  0  0  0  0
 76120  1  0  0  0  0
 77 78  2  0  0  0  0
 77121  1  0  0  0  0
 78122  1  0  0  0  0
 79 80  1  0  0  0  0
 79123  1  0  0  0  0
 80124  1  0  0  0  0
 81 82  1  0  0  0  0
 81 83  1  0  0  0  0
 82125  1  0  0  0  0
 82126  1  0  0  0  0
 82127  1  0  0  0  0
M  CHG  3  33  -1  50  -1  65  -1
M  END
$$$$
