5_1_1224
 OpenBabel04152301373D

133143  0  0  1  0  0  0  0  0999 V2000
    1.1720   -1.5052   -2.0038 C   0  0  0  0  0  0  0  0  0  0  0  0
    0.1292   -0.9013   -1.0267 C   0  0  2  0  0  0  0  0  0  0  0  0
    0.8701    0.2357   -0.2918 C   0  0  0  0  0  0  0  0  0  0  0  0
    2.0749    0.1900   -0.0290 O   0  0  0  0  0  0  0  0  0  0  0  0
    0.2154    1.3977   -0.0018 N   0  0  0  0  0  0  0  0  0  0  0  0
   -1.2047    1.6824    0.0032 C   0  0  0  0  0  0  0  0  0  0  0  0
   -1.6645    2.0500    1.4167 C   0  0  0  0  0  0  0  0  0  0  0  0
   -1.0657    3.3506    1.9536 C   0  0  0  0  0  0  0  0  0  0  0  0
   -1.3134    4.5646    1.0725 C   0  0  0  0  0  0  0  0  0  0  0  0
   -2.7273    4.7618    0.7949 N   0  0  0  0  0  0  0  0  0  0  0  0
   -3.4613    5.9172    0.8330 C   0  0  0  0  0  0  0  0  0  0  0  0
   -4.6887    5.8572    0.7516 O   0  0  0  0  0  0  0  0  0  0  0  0
   -2.7789    7.2141    1.0064 C   0  0  0  0  0  0  0  0  0  0  0  0
   -3.3362    8.1532    1.8737 C   0  0  0  0  0  0  0  0  0  0  0  0
   -2.6650    9.3519    2.1075 C   0  0  0  0  0  0  0  0  0  0  0  0
   -1.4064    9.5925    1.5278 C   0  0  0  0  0  0  0  0  0  0  0  0
   -0.6603   10.8361    1.8469 C   0  0  0  0  0  0  0  0  0  0  0  0
   -0.3394   11.8319    0.7656 C   0  0  0  0  0  0  0  0  0  0  0  0
    0.2658   12.9879    0.8628 N   0  0  0  0  0  0  0  0  0  0  0  0
    0.3240   13.4962   -0.4303 C   0  0  0  0  0  0  0  0  0  0  0  0
    0.7609   14.7106   -0.8460 C   0  0  0  0  0  0  0  0  0  0  0  0
    0.6647   15.0159   -2.3227 C   0  0  0  0  0  0  0  0  0  0  0  0
   -0.5764   15.0600   -2.9844 C   0  0  0  0  0  0  0  0  0  0  0  0
   -0.6269   15.2645   -4.3713 C   0  0  0  0  0  0  0  0  0  0  0  0
   -2.2119   15.0381   -5.2236 S   0  0  0  0  0  0  0  0  0  0  0  0
   -2.5238   13.6476   -4.9008 O   0  0  0  0  0  0  0  0  0  0  0  0
   -3.0567   16.0455   -4.5932 O   0  0  0  0  0  0  0  0  0  0  0  0
   -1.8851   15.2858   -6.6264 O   0  5  0  0  0  0  0  0  0  0  0  0
    0.5304   15.5329   -5.1045 C   0  0  0  0  0  0  0  0  0  0  0  0
    1.7591   15.5389   -4.4504 C   0  0  0  0  0  0  0  0  0  0  0  0
    1.8220   15.2523   -3.0847 C   0  0  0  0  0  0  0  0  0  0  0  0
    3.0372   15.1997   -2.5170 F   0  0  0  0  0  0  0  0  0  0  0  0
    1.3121   15.7066    0.0405 C   0  0  0  0  0  0  0  0  0  0  0  0
    1.7619   16.9792   -0.2646 C   0  0  0  0  0  0  0  0  0  0  0  0
    2.2794   17.5538    0.9014 C   0  0  0  0  0  0  0  0  0  0  0  0
    2.0749   16.6763    1.9542 C   0  0  0  0  0  0  0  0  0  0  0  0
    1.4950   15.5405    1.4084 N   0  0  0  0  0  0  0  0  0  0  0  0
    2.3705   16.8676    3.3552 C   0  0  0  0  0  0  0  0  0  0  0  0
    2.9464   18.1926    3.7978 C   0  0  0  0  0  0  0  0  0  0  0  0
    4.2075   18.2770    4.4144 C   0  0  0  0  0  0  0  0  0  0  0  0
    4.6465   19.4986    4.9444 C   0  0  0  0  0  0  0  0  0  0  0  0
    6.1313   19.5056    5.9863 S   0  0  0  0  0  0  0  0  0  0  0  0
    5.7865   18.5239    7.0095 O   0  0  0  0  0  0  0  0  0  0  0  0
    7.1734   19.1068    5.0459 O   0  0  0  0  0  0  0  0  0  0  0  0
    6.2141   20.8877    6.4549 O   0  5  0  0  0  0  0  0  0  0  0  0
    3.9020   20.6683    4.7772 C   0  0  0  0  0  0  0  0  0  0  0  0
    2.6843   20.6068    4.1058 C   0  0  0  0  0  0  0  0  0  0  0  0
    2.2045   19.3778    3.6506 C   0  0  0  0  0  0  0  0  0  0  0  0
    0.9933   19.3604    3.0713 F   0  0  0  0  0  0  0  0  0  0  0  0
    2.1270   15.9533    4.3304 C   0  0  0  0  0  0  0  0  0  0  0  0
    1.5948   14.6709    4.2275 N   0  0  0  0  0  0  0  0  0  0  0  0
    1.6063   14.1811    5.4471 C   0  0  0  0  0  0  0  0  0  0  0  0
    1.1138   12.8432    5.9377 C   0  0  0  0  0  0  0  0  0  0  0  0
    1.2545   12.4511    7.3711 C   0  0  0  0  0  0  0  0  0  0  0  0
    0.6297   13.1814    8.3948 C   0  0  0  0  0  0  0  0  0  0  0  0
    0.8778   12.8578    9.7383 C   0  0  0  0  0  0  0  0  0  0  0  0
    0.2335   13.9566   11.0306 S   0  0  0  0  0  0  0  0  0  0  0  0
    0.7996   15.2416   10.6374 O   0  0  0  0  0  0  0  0  0  0  0  0
   -1.2082   13.8109   10.8597 O   0  0  0  0  0  0  0  0  0  0  0  0
    0.7742   13.3856   12.2624 O   0  5  0  0  0  0  0  0  0  0  0  0
    1.6757   11.7659   10.0861 C   0  0  0  0  0  0  0  0  0  0  0  0
    2.2593   11.0065    9.0778 C   0  0  0  0  0  0  0  0  0  0  0  0
    2.0690   11.3658    7.7428 C   0  0  0  0  0  0  0  0  0  0  0  0
    2.6888   10.6293    6.8065 F   0  0  0  0  0  0  0  0  0  0  0  0
    0.5511   12.0020    5.0480 C   0  0  0  0  0  0  0  0  0  0  0  0
   -0.0097   10.6930    5.3629 C   0  0  0  0  0  0  0  0  0  0  0  0
   -0.4643   10.1278    4.2341 C   0  0  0  0  0  0  0  0  0  0  0  0
   -0.2685   11.0574    3.1176 C   0  0  0  0  0  0  0  0  0  0  0  0
    0.3617   12.1316    3.6910 N   0  0  0  0  0  0  0  0  0  0  0  0
    2.1657   15.0869    6.4559 C   0  0  0  0  0  0  0  0  0  0  0  0
    2.4071   16.1706    5.7353 C   0  0  0  0  0  0  0  0  0  0  0  0
   -0.2267   12.4834   -1.3039 C   0  0  0  0  0  0  0  0  0  0  0  0
   -0.7226   11.4717   -0.6085 C   0  0  0  0  0  0  0  0  0  0  0  0
   -0.8682    8.6459    0.6469 C   0  0  0  0  0  0  0  0  0  0  0  0
   -1.5841    7.4952    0.3354 C   0  0  0  0  0  0  0  0  0  0  0  0
   -0.5330   -1.9269   -0.1668 N   0  3  2  0  0  0  0  0  0  0  0  0
   -1.2851   -1.4841    1.0377 C   0  0  0  0  0  0  0  0  0  0  0  0
   -1.3643   -2.5188    2.2350 C   0  0  0  0  0  0  0  0  0  0  0  0
    0.0421   -2.9706    2.5725 C   0  0  0  0  0  0  0  0  0  0  0  0
    0.5212   -3.3543    3.8148 C   0  0  0  0  0  0  0  0  0  0  0  0
    1.9066   -3.4205    4.0066 C   0  0  0  0  0  0  0  0  0  0  0  0
    2.7831   -3.0152    2.9932 C   0  0  0  0  0  0  0  0  0  0  0  0
    2.2944   -2.7797    1.7171 C   0  0  0  0  0  0  0  0  0  0  0  0
    0.9357   -2.9319    1.4994 C   0  0  0  0  0  0  0  0  0  0  0  0
    0.2983   -3.0696    0.1571 C   0  0  0  0  0  0  0  0  0  0  0  0
    0.7240   -2.3071   -2.5526 H   0  0  0  0  0  0  0  0  0  0  0  0
    2.0080   -1.8763   -1.4485 H   0  0  0  0  0  0  0  0  0  0  0  0
    1.5032   -0.7487   -2.6842 H   0  0  0  0  0  0  0  0  0  0  0  0
   -0.7209   -0.4943   -1.5331 H   0  0  0  0  0  0  0  0  0  0  0  0
    0.7952    2.1557    0.2402 H   0  0  0  0  0  0  0  0  0  0  0  0
   -1.7399    0.8175   -0.3290 H   0  0  0  0  0  0  0  0  0  0  0  0
   -1.3984    2.5055   -0.6524 H   0  0  0  0  0  0  0  0  0  0  0  0
   -1.3866    1.2552    2.0770 H   0  0  0  0  0  0  0  0  0  0  0  0
   -2.7231    2.1972    1.3665 H   0  0  0  0  0  0  0  0  0  0  0  0
   -0.0085    3.2175    2.0511 H   0  0  0  0  0  0  0  0  0  0  0  0
   -1.5483    3.5470    2.8882 H   0  0  0  0  0  0  0  0  0  0  0  0
   -0.7958    4.4294    0.1459 H   0  0  0  0  0  0  0  0  0  0  0  0
   -0.9573    5.4280    1.5947 H   0  0  0  0  0  0  0  0  0  0  0  0
   -3.2266    3.9511    0.5445 H   0  0  0  0  0  0  0  0  0  0  0  0
   -4.2377    7.9622    2.3383 H   0  0  0  0  0  0  0  0  0  0  0  0
   -3.0954   10.0695    2.7115 H   0  0  0  0  0  0  0  0  0  0  0  0
   -1.4505   14.9418   -2.4487 H   0  0  0  0  0  0  0  0  0  0  0  0
    0.4757   15.7242   -6.1171 H   0  0  0  0  0  0  0  0  0  0  0  0
    2.6221   15.7547   -4.9735 H   0  0  0  0  0  0  0  0  0  0  0  0
    1.7224   17.4277   -1.1932 H   0  0  0  0  0  0  0  0  0  0  0  0
    2.7368   18.4766    0.9665 H   0  0  0  0  0  0  0  0  0  0  0  0
    1.2487   14.7338    1.9162 H   0  0  0  0  0  0  0  0  0  0  0  0
    4.8091   17.4408    4.4767 H   0  0  0  0  0  0  0  0  0  0  0  0
    4.2502   21.5667    5.1467 H   0  0  0  0  0  0  0  0  0  0  0  0
    2.1379   21.4674    3.9451 H   0  0  0  0  0  0  0  0  0  0  0  0
   -0.0113   13.9553    8.1599 H   0  0  0  0  0  0  0  0  0  0  0  0
    1.8302   11.5258   11.0778 H   0  0  0  0  0  0  0  0  0  0  0  0
    2.8307   10.1807    9.3158 H   0  0  0  0  0  0  0  0  0  0  0  0
   -0.0503   10.2694    6.3031 H   0  0  0  0  0  0  0  0  0  0  0  0
   -0.8849    9.1881    4.1632 H   0  0  0  0  0  0  0  0  0  0  0  0
    0.6516   12.9216    3.1799 H   0  0  0  0  0  0  0  0  0  0  0  0
    2.3282   14.9227    7.4617 H   0  0  0  0  0  0  0  0  0  0  0  0
    2.7525   17.0611    6.1262 H   0  0  0  0  0  0  0  0  0  0  0  0
   -0.2323   12.5417   -2.3342 H   0  0  0  0  0  0  0  0  0  0  0  0
   -1.2426   10.6455   -0.9432 H   0  0  0  0  0  0  0  0  0  0  0  0
    0.0618    8.8028    0.2280 H   0  0  0  0  0  0  0  0  0  0  0  0
   -1.2344    6.8495   -0.3898 H   0  0  0  0  0  0  0  0  0  0  0  0
   -1.2639   -2.2075   -0.8206 H   0  0  0  0  0  0  0  0  0  0  0  0
   -2.2862   -1.2606    0.7331 H   0  0  0  0  0  0  0  0  0  0  0  0
   -0.7424   -0.6453    1.4207 H   0  0  0  0  0  0  0  0  0  0  0  0
   -1.9547   -3.3626    1.9446 H   0  0  0  0  0  0  0  0  0  0  0  0
   -1.8167   -2.0586    3.0885 H   0  0  0  0  0  0  0  0  0  0  0  0
   -0.1289   -3.5862    4.5820 H   0  0  0  0  0  0  0  0  0  0  0  0
    2.2841   -3.7704    4.9011 H   0  0  0  0  0  0  0  0  0  0  0  0
    3.7877   -2.8923    3.1948 H   0  0  0  0  0  0  0  0  0  0  0  0
    2.9260   -2.4987    0.9508 H   0  0  0  0  0  0  0  0  0  0  0  0
    1.0660   -3.1596   -0.5827 H   0  0  0  0  0  0  0  0  0  0  0  0
   -0.3253   -3.9390    0.1739 H   0  0  0  0  0  0  0  0  0  0  0  0
  1 86  1  0  0  0  0
  1 87  1  0  0  0  0
  1 88  1  0  0  0  0
  2 76  1  0  0  0  0
  2  3  1  0  0  0  0
  2  1  1  0  0  0  0
  2 89  1  6  0  0  0
  3  4  2  0  0  0  0
  3  5  1  0  0  0  0
  5  6  1  0  0  0  0
  5 90  1  0  0  0  0
  6  7  1  0  0  0  0
  6 91  1  0  0  0  0
  6 92  1  0  0  0  0
  7  8  1  0  0  0  0
  7 93  1  0  0  0  0
  7 94  1  0  0  0  0
  8  9  1  0  0  0  0
  8 95  1  0  0  0  0
  8 96  1  0  0  0  0
  9 10  1  0  0  0  0
  9 97  1  0  0  0  0
  9 98  1  0  0  0  0
 10 11  1  0  0  0  0
 10 99  1  0  0  0  0
 11 12  2  0  0  0  0
 11 13  1  0  0  0  0
 13 14  1  0  0  0  0
 13 75  2  0  0  0  0
 14 15  2  0  0  0  0
 14100  1  0  0  0  0
 15 16  1  0  0  0  0
 15101  1  0  0  0  0
 16 17  1  0  0  0  0
 16 74  2  0  0  0  0
 17 18  1  0  0  0  0
 17 68  2  0  0  0  0
 18 19  2  0  0  0  0
 18 73  1  0  0  0  0
 19 20  1  0  0  0  0
 20 21  2  0  0  0  0
 20 72  1  0  0  0  0
 21 22  1  0  0  0  0
 21 33  1  0  0  0  0
 22 23  1  0  0  0  0
 22 31  2  0  0  0  0
 23 24  2  0  0  0  0
 23102  1  0  0  0  0
 24 25  1  0  0  0  0
 24 29  1  0  0  0  0
 25 26  2  0  0  0  0
 25 27  2  0  0  0  0
 25 28  1  0  0  0  0
 29 30  2  0  0  0  0
 29103  1  0  0  0  0
 30 31  1  0  0  0  0
 30104  1  0  0  0  0
 31 32  1  0  0  0  0
 33 34  2  0  0  0  0
 33 37  1  0  0  0  0
 34 35  1  0  0  0  0
 34105  1  0  0  0  0
 35 36  2  0  0  0  0
 35106  1  0  0  0  0
 36 37  1  0  0  0  0
 36 38  1  0  0  0  0
 37107  1  0  0  0  0
 38 39  1  0  0  0  0
 38 50  2  0  0  0  0
 39 40  1  0  0  0  0
 39 48  2  0  0  0  0
 40 41  2  0  0  0  0
 40108  1  0  0  0  0
 41 42  1  0  0  0  0
 41 46  1  0  0  0  0
 42 43  2  0  0  0  0
 42 44  2  0  0  0  0
 42 45  1  0  0  0  0
 46 47  2  0  0  0  0
 46109  1  0  0  0  0
 47 48  1  0  0  0  0
 47110  1  0  0  0  0
 48 49  1  0  0  0  0
 50 51  1  0  0  0  0
 50 71  1  0  0  0  0
 51 52  2  0  0  0  0
 52 53  1  0  0  0  0
 52 70  1  0  0  0  0
 53 54  1  0  0  0  0
 53 65  2  0  0  0  0
 54 55  1  0  0  0  0
 54 63  2  0  0  0  0
 55 56  2  0  0  0  0
 55111  1  0  0  0  0
 56 57  1  0  0  0  0
 56 61  1  0  0  0  0
 57 58  2  0  0  0  0
 57 59  2  0  0  0  0
 57 60  1  0  0  0  0
 61 62  2  0  0  0  0
 61112  1  0  0  0  0
 62 63  1  0  0  0  0
 62113  1  0  0  0  0
 63 64  1  0  0  0  0
 65 66  1  0  0  0  0
 65 69  1  0  0  0  0
 66 67  2  0  0  0  0
 66114  1  0  0  0  0
 67 68  1  0  0  0  0
 67115  1  0  0  0  0
 68 69  1  0  0  0  0
 69116  1  0  0  0  0
 70 71  2  0  0  0  0
 70117  1  0  0  0  0
 71118  1  0  0  0  0
 72 73  2  0  0  0  0
 72119  1  0  0  0  0
 73120  1  0  0  0  0
 74 75  1  0  0  0  0
 74121  1  0  0  0  0
 75122  1  0  0  0  0
 76 77  1  0  0  0  0
 76 85  1  0  0  0  0
 76123  1  6  0  0  0
 77 78  1  0  0  0  0
 77124  1  0  0  0  0
 77125  1  0  0  0  0
 78 79  1  0  0  0  0
 78126  1  0  0  0  0
 78127  1  0  0  0  0
 79 80  1  0  0  0  0
 79 84  2  0  0  0  0
 80 81  2  0  0  0  0
 80128  1  0  0  0  0
 81 82  1  0  0  0  0
 81129  1  0  0  0  0
 82 83  2  0  0  0  0
 82130  1  0  0  0  0
 83 84  1  0  0  0  0
 83131  1  0  0  0  0
 84 85  1  0  0  0  0
 85132  1  0  0  0  0
 85133  1  0  0  0  0
M  CHG  4  28  -1  45  -1  60  -1  76   1
M  END
$$$$
