5_1_7937
 OpenBabel04152301373D

144154  0  0  1  0  0  0  0  0999 V2000
    0.9816   -0.0719   -0.1351 C   0  0  0  0  0  0  0  0  0  0  0  0
    0.4189   -1.4225    0.3388 C   0  0  0  0  0  0  0  0  0  0  0  0
    0.9411   -1.6859    1.7551 C   0  0  0  0  0  0  0  0  0  0  0  0
   -1.1085   -1.3713    0.2762 C   0  0  0  0  0  0  0  0  0  0  0  0
    0.9263   -2.3967   -0.6014 O   0  0  0  0  0  0  0  0  0  0  0  0
    0.7652   -3.7293   -0.3919 C   0  0  0  0  0  0  0  0  0  0  0  0
    0.1755   -4.2485    0.5269 O   0  0  0  0  0  0  0  0  0  0  0  0
    1.4091   -4.4759   -1.3371 N   0  0  0  0  0  0  0  0  0  0  0  0
    1.8737   -3.9735   -2.6230 C   0  0  1  0  0  0  0  0  0  0  0  0
    3.3916   -4.1726   -2.8324 C   0  0  0  0  0  0  0  0  0  0  0  0
    3.8149   -5.5775   -3.0544 C   0  0  0  0  0  0  0  0  0  0  0  0
    4.2863   -6.4754   -2.1141 C   0  0  0  0  0  0  0  0  0  0  0  0
    4.2872   -7.7165   -2.6887 N   0  0  0  0  0  0  0  0  0  0  0  0
    3.7182   -7.6246   -3.9336 C   0  0  0  0  0  0  0  0  0  0  0  0
    3.1555   -8.6050   -4.7293 C   0  0  0  0  0  0  0  0  0  0  0  0
    2.5305   -8.1102   -5.8813 C   0  0  0  0  0  0  0  0  0  0  0  0
    2.6616   -6.8403   -6.3885 C   0  0  0  0  0  0  0  0  0  0  0  0
    3.2812   -5.9160   -5.5972 C   0  0  0  0  0  0  0  0  0  0  0  0
    3.3876   -4.3025   -6.1210 Cl  0  0  0  0  0  0  0  0  0  0  0  0
    3.6751   -6.2720   -4.2876 C   0  0  0  0  0  0  0  0  0  0  0  0
    0.8152   -4.2846   -3.7349 C   0  0  0  0  0  0  0  0  0  0  0  0
    0.5521   -3.4063   -4.5695 O   0  0  0  0  0  0  0  0  0  0  0  0
    0.1003   -5.4501   -3.8749 N   0  0  0  0  0  0  0  0  0  0  0  0
    0.3530   -6.8173   -3.4421 C   0  0  0  0  0  0  0  0  0  0  0  0
   -0.8717   -7.7285   -3.2444 C   0  0  0  0  0  0  0  0  0  0  0  0
   -1.6564   -8.2120   -4.4884 C   0  0  0  0  0  0  0  0  0  0  0  0
   -1.0861   -9.3104   -5.4359 C   0  0  0  0  0  0  0  0  0  0  0  0
   -0.6958  -10.5935   -4.8243 N   0  0  0  0  0  0  0  0  0  0  0  0
   -0.2240  -11.7813   -5.4156 C   0  0  0  0  0  0  0  0  0  0  0  0
   -0.2988  -12.8312   -4.7817 O   0  0  0  0  0  0  0  0  0  0  0  0
    0.4765  -11.7848   -6.7367 C   0  0  0  0  0  0  0  0  0  0  0  0
    0.6510  -12.8280   -7.6354 C   0  0  0  0  0  0  0  0  0  0  0  0
    1.5850  -12.6865   -8.7032 C   0  0  0  0  0  0  0  0  0  0  0  0
    2.2401  -11.4609   -8.9427 C   0  0  0  0  0  0  0  0  0  0  0  0
    3.0433  -11.1454  -10.1252 C   0  0  0  0  0  0  0  0  0  0  0  0
    2.1893  -11.0859  -11.3278 C   0  0  0  0  0  0  0  0  0  0  0  0
    1.9253  -12.0746  -12.1104 N   0  0  0  0  0  0  0  0  0  0  0  0
    1.0748  -11.5586  -13.0731 C   0  0  0  0  0  0  0  0  0  0  0  0
    1.0795  -12.0467  -14.3444 C   0  0  0  0  0  0  0  0  0  0  0  0
    0.6531  -11.2620  -15.5559 C   0  0  0  0  0  0  0  0  0  0  0  0
    0.4988   -9.8645  -15.5539 C   0  0  0  0  0  0  0  0  0  0  0  0
    0.2718   -9.1483  -16.7335 C   0  0  0  0  0  0  0  0  0  0  0  0
   -0.0031   -7.3567  -16.6724 S   0  0  0  0  0  0  0  0  0  0  0  0
    1.0658   -6.8607  -17.5320 O   0  0  0  0  0  0  0  0  0  0  0  0
   -1.3558   -7.2493  -17.2125 O   0  0  0  0  0  0  0  0  0  0  0  0
    0.1228   -7.0419  -15.2524 O   0  5  0  0  0  0  0  0  0  0  0  0
    0.2740   -9.7873  -17.9677 C   0  0  0  0  0  0  0  0  0  0  0  0
    0.4394  -11.1663  -18.0042 C   0  0  0  0  0  0  0  0  0  0  0  0
    0.5941  -11.8881  -16.8154 C   0  0  0  0  0  0  0  0  0  0  0  0
    0.7421  -13.2173  -16.9318 F   0  0  0  0  0  0  0  0  0  0  0  0
    1.9271  -13.2109  -14.4460 C   0  0  0  0  0  0  0  0  0  0  0  0
    1.9465  -14.4630  -13.8649 C   0  0  0  0  0  0  0  0  0  0  0  0
    3.3255  -14.7540  -13.6498 C   0  0  0  0  0  0  0  0  0  0  0  0
    4.0818  -13.6974  -14.1620 C   0  0  0  0  0  0  0  0  0  0  0  0
    3.1943  -12.9999  -14.9393 N   0  0  0  0  0  0  0  0  0  0  0  0
    5.4442  -13.2763  -13.8994 C   0  0  0  0  0  0  0  0  0  0  0  0
    6.2956  -14.2347  -13.0982 C   0  0  0  0  0  0  0  0  0  0  0  0
    6.5317  -15.4971  -13.6660 C   0  0  0  0  0  0  0  0  0  0  0  0
    7.0990  -16.5218  -12.9022 C   0  0  0  0  0  0  0  0  0  0  0  0
    7.1984  -18.2019  -13.5662 S   0  0  0  0  0  0  0  0  0  0  0  0
    8.6295  -18.4825  -13.4892 O   0  0  0  0  0  0  0  0  0  0  0  0
    6.3622  -18.9507  -12.6304 O   0  0  0  0  0  0  0  0  0  0  0  0
    6.6599  -18.0816  -14.9181 O   0  5  0  0  0  0  0  0  0  0  0  0
    7.5099  -16.3010  -11.5852 C   0  0  0  0  0  0  0  0  0  0  0  0
    7.3198  -15.0443  -11.0206 C   0  0  0  0  0  0  0  0  0  0  0  0
    6.6940  -14.0359  -11.7622 C   0  0  0  0  0  0  0  0  0  0  0  0
    6.4236  -12.8972  -11.1117 F   0  0  0  0  0  0  0  0  0  0  0  0
    5.9297  -12.0245  -14.1408 C   0  0  0  0  0  0  0  0  0  0  0  0
    7.0259  -11.5429  -13.4440 N   0  0  0  0  0  0  0  0  0  0  0  0
    6.8197  -10.2596  -13.3699 C   0  0  0  0  0  0  0  0  0  0  0  0
    7.1219   -9.4359  -12.1754 C   0  0  0  0  0  0  0  0  0  0  0  0
    7.9468   -8.2072  -12.3131 C   0  0  0  0  0  0  0  0  0  0  0  0
    7.5072   -7.0133  -11.7194 C   0  0  0  0  0  0  0  0  0  0  0  0
    7.9844   -5.7743  -12.1771 C   0  0  0  0  0  0  0  0  0  0  0  0
    7.3061   -4.2354  -11.4986 S   0  0  0  0  0  0  0  0  0  0  0  0
    8.4970   -3.3985  -11.3678 O   0  0  0  0  0  0  0  0  0  0  0  0
    6.3701   -3.8385  -12.5439 O   0  0  0  0  0  0  0  0  0  0  0  0
    6.7113   -4.6627  -10.2359 O   0  5  0  0  0  0  0  0  0  0  0  0
    8.9331   -5.6887  -13.1980 C   0  0  0  0  0  0  0  0  0  0  0  0
    9.4276   -6.8630  -13.7532 C   0  0  0  0  0  0  0  0  0  0  0  0
    8.9395   -8.1006  -13.3115 C   0  0  0  0  0  0  0  0  0  0  0  0
    9.3950   -9.1952  -13.9413 F   0  0  0  0  0  0  0  0  0  0  0  0
    6.2467   -9.7927  -11.1948 C   0  0  0  0  0  0  0  0  0  0  0  0
    6.3152   -9.6122   -9.7530 C   0  0  0  0  0  0  0  0  0  0  0  0
    5.2278  -10.1936   -9.1787 C   0  0  0  0  0  0  0  0  0  0  0  0
    4.3052  -10.6584  -10.2205 C   0  0  0  0  0  0  0  0  0  0  0  0
    5.0269  -10.4426  -11.3650 N   0  0  0  0  0  0  0  0  0  0  0  0
    5.8961   -9.7148  -14.3514 C   0  0  0  0  0  0  0  0  0  0  0  0
    5.3363  -10.8500  -14.7754 C   0  0  0  0  0  0  0  0  0  0  0  0
    0.5593  -10.3272  -12.5269 C   0  0  0  0  0  0  0  0  0  0  0  0
    1.3499   -9.8973  -11.5407 C   0  0  0  0  0  0  0  0  0  0  0  0
    1.9411  -10.4178   -8.1224 C   0  0  0  0  0  0  0  0  0  0  0  0
    1.3207  -10.7300   -6.9306 C   0  0  0  0  0  0  0  0  0  0  0  0
    0.6446    0.7044    0.5196 H   0  0  0  0  0  0  0  0  0  0  0  0
    0.6408    0.1273   -1.1296 H   0  0  0  0  0  0  0  0  0  0  0  0
    2.0510   -0.1077   -0.1250 H   0  0  0  0  0  0  0  0  0  0  0  0
    0.5472   -0.9488    2.4233 H   0  0  0  0  0  0  0  0  0  0  0  0
    2.0098   -1.6339    1.7566 H   0  0  0  0  0  0  0  0  0  0  0  0
    0.6309   -2.6589    2.0744 H   0  0  0  0  0  0  0  0  0  0  0  0
   -1.4701   -0.6473    0.9761 H   0  0  0  0  0  0  0  0  0  0  0  0
   -1.5079   -2.3335    0.5200 H   0  0  0  0  0  0  0  0  0  0  0  0
   -1.4160   -1.0973   -0.7113 H   0  0  0  0  0  0  0  0  0  0  0  0
    1.5715   -5.4254   -1.1340 H   0  0  0  0  0  0  0  0  0  0  0  0
    1.8933   -2.9053   -2.6824 H   0  0  0  0  0  0  0  0  0  0  0  0
    3.8974   -3.8069   -1.9633 H   0  0  0  0  0  0  0  0  0  0  0  0
    3.6428   -3.6398   -3.7257 H   0  0  0  0  0  0  0  0  0  0  0  0
    4.5838   -6.2496   -1.1521 H   0  0  0  0  0  0  0  0  0  0  0  0
    4.6380   -8.5392   -2.2772 H   0  0  0  0  0  0  0  0  0  0  0  0
    3.1925   -9.6096   -4.4960 H   0  0  0  0  0  0  0  0  0  0  0  0
    1.9151   -8.7593   -6.3961 H   0  0  0  0  0  0  0  0  0  0  0  0
    2.3074   -6.5956   -7.3264 H   0  0  0  0  0  0  0  0  0  0  0  0
   -0.7476   -5.3390   -4.3627 H   0  0  0  0  0  0  0  0  0  0  0  0
    0.8726   -6.7687   -2.5080 H   0  0  0  0  0  0  0  0  0  0  0  0
    0.9034   -7.2639   -4.2437 H   0  0  0  0  0  0  0  0  0  0  0  0
   -1.5627   -7.1951   -2.6257 H   0  0  0  0  0  0  0  0  0  0  0  0
   -0.4594   -8.6274   -2.8359 H   0  0  0  0  0  0  0  0  0  0  0  0
   -1.8226   -7.3466   -5.0954 H   0  0  0  0  0  0  0  0  0  0  0  0
   -2.5009   -8.7021   -4.0509 H   0  0  0  0  0  0  0  0  0  0  0  0
   -0.2187   -8.9046   -5.9132 H   0  0  0  0  0  0  0  0  0  0  0  0
   -1.8947   -9.5536   -6.0931 H   0  0  0  0  0  0  0  0  0  0  0  0
   -0.7783  -10.6252   -3.8438 H   0  0  0  0  0  0  0  0  0  0  0  0
    0.1086  -13.6998   -7.5314 H   0  0  0  0  0  0  0  0  0  0  0  0
    1.7853  -13.4955   -9.3118 H   0  0  0  0  0  0  0  0  0  0  0  0
    0.5545   -9.3540  -14.6588 H   0  0  0  0  0  0  0  0  0  0  0  0
    0.1551   -9.2482  -18.8397 H   0  0  0  0  0  0  0  0  0  0  0  0
    0.4482  -11.6597  -18.9106 H   0  0  0  0  0  0  0  0  0  0  0  0
    1.1367  -15.0601  -13.6355 H   0  0  0  0  0  0  0  0  0  0  0  0
    3.7006  -15.6004  -13.1938 H   0  0  0  0  0  0  0  0  0  0  0  0
    3.4242  -12.4429  -15.7178 H   0  0  0  0  0  0  0  0  0  0  0  0
    6.2850  -15.6697  -14.6531 H   0  0  0  0  0  0  0  0  0  0  0  0
    7.9481  -17.0593  -11.0394 H   0  0  0  0  0  0  0  0  0  0  0  0
    7.6393  -14.8559  -10.0575 H   0  0  0  0  0  0  0  0  0  0  0  0
    6.8293   -7.0464  -10.9420 H   0  0  0  0  0  0  0  0  0  0  0  0
    9.2613   -4.7699  -13.5343 H   0  0  0  0  0  0  0  0  0  0  0  0
   10.1514   -6.8240  -14.4878 H   0  0  0  0  0  0  0  0  0  0  0  0
    7.0686   -9.1213   -9.2466 H   0  0  0  0  0  0  0  0  0  0  0  0
    5.0748  -10.2928   -8.1629 H   0  0  0  0  0  0  0  0  0  0  0  0
    4.7041  -10.7284  -12.2501 H   0  0  0  0  0  0  0  0  0  0  0  0
    5.7239   -8.7380  -14.6365 H   0  0  0  0  0  0  0  0  0  0  0  0
    4.5740  -10.8929  -15.4698 H   0  0  0  0  0  0  0  0  0  0  0  0
   -0.2956   -9.8485  -12.8510 H   0  0  0  0  0  0  0  0  0  0  0  0
    1.3672   -8.9839  -11.0607 H   0  0  0  0  0  0  0  0  0  0  0  0
    2.1666   -9.4438   -8.3783 H   0  0  0  0  0  0  0  0  0  0  0  0
    1.5098  -10.1177   -6.1217 H   0  0  0  0  0  0  0  0  0  0  0  0
  1  2  1  0  0  0  0
  1 94  1  0  0  0  0
  1 95  1  0  0  0  0
  1 96  1  0  0  0  0
  2  3  1  0  0  0  0
  2  4  1  0  0  0  0
  2  5  1  0  0  0  0
  3 97  1  0  0  0  0
  3 98  1  0  0  0  0
  3 99  1  0  0  0  0
  4100  1  0  0  0  0
  4101  1  0  0  0  0
  4102  1  0  0  0  0
  5  6  1  0  0  0  0
  6  7  2  0  0  0  0
  6  8  1  0  0  0  0
  8  9  1  0  0  0  0
  8103  1  0  0  0  0
  9 10  1  0  0  0  0
  9 21  1  0  0  0  0
  9104  1  1  0  0  0
 10 11  1  0  0  0  0
 10105  1  0  0  0  0
 10106  1  0  0  0  0
 11 12  2  0  0  0  0
 11 20  1  0  0  0  0
 12 13  1  0  0  0  0
 12107  1  0  0  0  0
 13 14  1  0  0  0  0
 13108  1  0  0  0  0
 14 15  1  0  0  0  0
 14 20  2  0  0  0  0
 15 16  2  0  0  0  0
 15109  1  0  0  0  0
 16 17  1  0  0  0  0
 16110  1  0  0  0  0
 17 18  2  0  0  0  0
 17111  1  0  0  0  0
 18 19  1  0  0  0  0
 18 20  1  0  0  0  0
 21 22  2  0  0  0  0
 21 23  1  0  0  0  0
 23 24  1  0  0  0  0
 23112  1  0  0  0  0
 24 25  1  0  0  0  0
 24113  1  0  0  0  0
 24114  1  0  0  0  0
 25 26  1  0  0  0  0
 25115  1  0  0  0  0
 25116  1  0  0  0  0
 26 27  1  0  0  0  0
 26117  1  0  0  0  0
 26118  1  0  0  0  0
 27 28  1  0  0  0  0
 27119  1  0  0  0  0
 27120  1  0  0  0  0
 28 29  1  0  0  0  0
 28121  1  0  0  0  0
 29 30  2  0  0  0  0
 29 31  1  0  0  0  0
 31 32  1  0  0  0  0
 31 93  2  0  0  0  0
 32 33  2  0  0  0  0
 32122  1  0  0  0  0
 33 34  1  0  0  0  0
 33123  1  0  0  0  0
 34 35  1  0  0  0  0
 34 92  2  0  0  0  0
 35 36  1  0  0  0  0
 35 86  2  0  0  0  0
 36 37  2  0  0  0  0
 36 91  1  0  0  0  0
 37 38  1  0  0  0  0
 38 39  2  0  0  0  0
 38 90  1  0  0  0  0
 39 40  1  0  0  0  0
 39 51  1  0  0  0  0
 40 41  1  0  0  0  0
 40 49  2  0  0  0  0
 41 42  2  0  0  0  0
 41124  1  0  0  0  0
 42 43  1  0  0  0  0
 42 47  1  0  0  0  0
 43 44  2  0  0  0  0
 43 45  2  0  0  0  0
 43 46  1  0  0  0  0
 47 48  2  0  0  0  0
 47125  1  0  0  0  0
 48 49  1  0  0  0  0
 48126  1  0  0  0  0
 49 50  1  0  0  0  0
 51 52  2  0  0  0  0
 51 55  1  0  0  0  0
 52 53  1  0  0  0  0
 52127  1  0  0  0  0
 53 54  2  0  0  0  0
 53128  1  0  0  0  0
 54 55  1  0  0  0  0
 54 56  1  0  0  0  0
 55129  1  0  0  0  0
 56 57  1  0  0  0  0
 56 68  2  0  0  0  0
 57 58  1  0  0  0  0
 57 66  2  0  0  0  0
 58 59  2  0  0  0  0
 58130  1  0  0  0  0
 59 60  1  0  0  0  0
 59 64  1  0  0  0  0
 60 61  2  0  0  0  0
 60 62  2  0  0  0  0
 60 63  1  0  0  0  0
 64 65  2  0  0  0  0
 64131  1  0  0  0  0
 65 66  1  0  0  0  0
 65132  1  0  0  0  0
 66 67  1  0  0  0  0
 68 69  1  0  0  0  0
 68 89  1  0  0  0  0
 69 70  2  0  0  0  0
 70 71  1  0  0  0  0
 70 88  1  0  0  0  0
 71 72  1  0  0  0  0
 71 83  2  0  0  0  0
 72 73  1  0  0  0  0
 72 81  2  0  0  0  0
 73 74  2  0  0  0  0
 73133  1  0  0  0  0
 74 75  1  0  0  0  0
 74 79  1  0  0  0  0
 75 76  2  0  0  0  0
 75 77  2  0  0  0  0
 75 78  1  0  0  0  0
 79 80  2  0  0  0  0
 79134  1  0  0  0  0
 80 81  1  0  0  0  0
 80135  1  0  0  0  0
 81 82  1  0  0  0  0
 83 84  1  0  0  0  0
 83 87  1  0  0  0  0
 84 85  2  0  0  0  0
 84136  1  0  0  0  0
 85 86  1  0  0  0  0
 85137  1  0  0  0  0
 86 87  1  0  0  0  0
 87138  1  0  0  0  0
 88 89  2  0  0  0  0
 88139  1  0  0  0  0
 89140  1  0  0  0  0
 90 91  2  0  0  0  0
 90141  1  0  0  0  0
 91142  1  0  0  0  0
 92 93  1  0  0  0  0
 92143  1  0  0  0  0
 93144  1  0  0  0  0
M  CHG  3  46  -1  63  -1  78  -1
M  END
$$$$
