5_1_1727
 OpenBabel04152300273D

153165  0  0  1  0  0  0  0  0999 V2000
    1.3643   -0.0634   -0.0660 O   0  0  0  0  0  0  0  0  0  0  0  0
    2.5756   -0.1269    0.0770 C   0  0  0  0  0  0  0  0  0  0  0  0
    3.4130   -0.0326   -1.0152 N   0  0  0  0  0  0  0  0  0  0  0  0
    4.8654   -0.1429   -1.0976 C   0  0  0  0  0  0  0  0  0  0  0  0
    5.3579   -1.3128   -1.9395 C   0  0  0  0  0  0  0  0  0  0  0  0
    4.8752   -1.3591   -3.3836 C   0  0  0  0  0  0  0  0  0  0  0  0
    4.8700   -0.0425   -4.1485 C   0  0  0  0  0  0  0  0  0  0  0  0
    6.1603    0.5947   -4.3118 N   0  0  0  0  0  0  0  0  0  0  0  0
    6.4571    1.7272   -5.0181 C   0  0  0  0  0  0  0  0  0  0  0  0
    7.2607    2.4852   -4.4663 O   0  0  0  0  0  0  0  0  0  0  0  0
    5.9663    1.9864   -6.4725 C   0  0  1  0  0  0  0  0  0  0  0  0
    4.4520    1.7799   -6.7276 C   0  0  0  0  0  0  0  0  0  0  0  0
    3.6346    2.7052   -5.8078 C   0  0  0  0  0  0  0  0  0  0  0  0
    4.1287    4.1489   -5.9595 C   0  0  0  0  0  0  0  0  0  0  0  0
    5.0254    4.2499   -7.2108 C   0  0  0  0  0  0  0  0  0  0  0  0
    4.2114    3.6469   -8.3749 C   0  0  0  0  0  0  0  0  0  0  0  0
    4.1326    2.1361   -8.1928 C   0  0  0  0  0  0  0  0  0  0  0  0
    6.3460    3.4409   -6.9301 C   0  0  2  0  0  0  0  0  0  0  0  0
    7.3084    3.5558   -8.1339 C   0  0  0  0  0  0  0  0  0  0  0  0
    6.9203    3.8965   -9.2561 O   0  0  0  0  0  0  0  0  0  0  0  0
    8.6610    3.4780   -7.9813 N   0  0  0  0  0  0  0  0  0  0  0  0
    9.4445    2.9337   -6.9669 C   0  0  0  0  0  0  0  0  0  0  0  0
   10.4710    3.7145   -6.4382 C   0  0  0  0  0  0  0  0  0  0  0  0
   11.3160    3.1895   -5.4594 C   0  0  0  0  0  0  0  0  0  0  0  0
   11.1840    1.8572   -5.0446 C   0  0  0  0  0  0  0  0  0  0  0  0
   12.0865    1.2926   -3.9717 C   0  0  0  0  0  0  0  0  0  0  0  0
   13.3589    0.6737   -4.4974 C   0  0  0  0  0  0  0  0  0  0  0  0
   14.3874    1.4686   -5.0129 C   0  0  0  0  0  0  0  0  0  0  0  0
   15.5420    0.8537   -5.4719 C   0  0  0  0  0  0  0  0  0  0  0  0
   15.7439   -0.4801   -5.4515 N   0  0  0  0  0  0  0  0  0  0  0  0
   14.7432   -1.2310   -4.9419 C   0  0  0  0  0  0  0  0  0  0  0  0
   13.5491   -0.7105   -4.4646 C   0  0  0  0  0  0  0  0  0  0  0  0
   10.2082    1.0553   -5.6506 C   0  0  0  0  0  0  0  0  0  0  0  0
    9.3424    1.5926   -6.6075 C   0  0  0  0  0  0  0  0  0  0  0  0
    3.1623   -0.3504    1.4147 C   0  0  0  0  0  0  0  0  0  0  0  0
    4.2294    0.4326    1.8492 C   0  0  0  0  0  0  0  0  0  0  0  0
    4.9612    0.0271    2.9554 C   0  0  0  0  0  0  0  0  0  0  0  0
    4.5367   -1.0604    3.7384 C   0  0  0  0  0  0  0  0  0  0  0  0
    5.3411   -1.4442    4.9285 C   0  0  0  0  0  0  0  0  0  0  0  0
    6.0066   -2.7923    5.0196 C   0  0  0  0  0  0  0  0  0  0  0  0
    6.7571   -3.2777    5.9766 N   0  0  0  0  0  0  0  0  0  0  0  0
    7.0955   -4.5693    5.5845 C   0  0  0  0  0  0  0  0  0  0  0  0
    7.8862   -5.4700    6.2220 C   0  0  0  0  0  0  0  0  0  0  0  0
    8.0559   -6.8278    5.5801 C   0  0  0  0  0  0  0  0  0  0  0  0
    8.7090   -6.9877    4.3450 C   0  0  0  0  0  0  0  0  0  0  0  0
    8.7823   -8.2569    3.7485 C   0  0  0  0  0  0  0  0  0  0  0  0
    9.4101   -8.3843    2.0511 S   0  0  0  0  0  0  0  0  0  0  0  0
    8.4764   -7.5267    1.3243 O   0  0  0  0  0  0  0  0  0  0  0  0
   10.7720   -7.8791    2.1783 O   0  0  0  0  0  0  0  0  0  0  0  0
    9.2986   -9.8099    1.7491 O   0  5  0  0  0  0  0  0  0  0  0  0
    8.2971   -9.3929    4.4006 C   0  0  0  0  0  0  0  0  0  0  0  0
    7.6871   -9.2502    5.6432 C   0  0  0  0  0  0  0  0  0  0  0  0
    7.5467   -7.9798    6.2068 C   0  0  0  0  0  0  0  0  0  0  0  0
    6.8954   -7.8893    7.3771 F   0  0  0  0  0  0  0  0  0  0  0  0
    8.5350   -5.2144    7.4877 C   0  0  0  0  0  0  0  0  0  0  0  0
    9.3474   -6.0558    8.2296 C   0  0  0  0  0  0  0  0  0  0  0  0
    9.7059   -5.3958    9.4114 C   0  0  0  0  0  0  0  0  0  0  0  0
    9.1750   -4.1167    9.3788 C   0  0  0  0  0  0  0  0  0  0  0  0
    8.4478   -4.0242    8.2008 N   0  0  0  0  0  0  0  0  0  0  0  0
    9.3329   -3.0553   10.3444 C   0  0  0  0  0  0  0  0  0  0  0  0
   10.2025   -3.2997   11.5508 C   0  0  0  0  0  0  0  0  0  0  0  0
    9.6631   -3.3275   12.8490 C   0  0  0  0  0  0  0  0  0  0  0  0
   10.5164   -3.4373   13.9562 C   0  0  0  0  0  0  0  0  0  0  0  0
    9.8112   -3.2581   15.6175 S   0  0  0  0  0  0  0  0  0  0  0  0
    9.2038   -1.9329   15.5480 O   0  0  0  0  0  0  0  0  0  0  0  0
    8.8830   -4.3821   15.6848 O   0  0  0  0  0  0  0  0  0  0  0  0
   10.9743   -3.3620   16.4966 O   0  5  0  0  0  0  0  0  0  0  0  0
   11.8948   -3.5989   13.7929 C   0  0  0  0  0  0  0  0  0  0  0  0
   12.4293   -3.6238   12.5072 C   0  0  0  0  0  0  0  0  0  0  0  0
   11.5913   -3.4553   11.4044 C   0  0  0  0  0  0  0  0  0  0  0  0
   12.1567   -3.4340   10.1869 F   0  0  0  0  0  0  0  0  0  0  0  0
    8.7888   -1.8165   10.2359 C   0  0  0  0  0  0  0  0  0  0  0  0
    7.9650   -1.3015    9.2418 N   0  0  0  0  0  0  0  0  0  0  0  0
    7.6778   -0.0765    9.6182 C   0  0  0  0  0  0  0  0  0  0  0  0
    6.8281    0.9490    8.9219 C   0  0  0  0  0  0  0  0  0  0  0  0
    6.5776    2.2881    9.5247 C   0  0  0  0  0  0  0  0  0  0  0  0
    7.6208    3.2033    9.7266 C   0  0  0  0  0  0  0  0  0  0  0  0
    7.3582    4.4328   10.3503 C   0  0  0  0  0  0  0  0  0  0  0  0
    8.7550    5.5163   10.7543 S   0  0  0  0  0  0  0  0  0  0  0  0
    9.6051    4.6281   11.5389 O   0  0  0  0  0  0  0  0  0  0  0  0
    9.2511    5.8746    9.4296 O   0  0  0  0  0  0  0  0  0  0  0  0
    8.1333    6.6072   11.5019 O   0  5  0  0  0  0  0  0  0  0  0  0
    6.0615    4.7981   10.7205 C   0  0  0  0  0  0  0  0  0  0  0  0
    5.0164    3.9094   10.4936 C   0  0  0  0  0  0  0  0  0  0  0  0
    5.2822    2.6629    9.9280 C   0  0  0  0  0  0  0  0  0  0  0  0
    4.2471    1.8254    9.7535 F   0  0  0  0  0  0  0  0  0  0  0  0
    6.2540    0.6171    7.7506 C   0  0  0  0  0  0  0  0  0  0  0  0
    5.3981    1.4945    6.9628 C   0  0  0  0  0  0  0  0  0  0  0  0
    4.9306    0.8129    5.9089 C   0  0  0  0  0  0  0  0  0  0  0  0
    5.5261   -0.5272    5.8985 C   0  0  0  0  0  0  0  0  0  0  0  0
    6.2849   -0.5591    7.0383 N   0  0  0  0  0  0  0  0  0  0  0  0
    8.2801    0.3239   10.8938 C   0  0  0  0  0  0  0  0  0  0  0  0
    8.9799   -0.7562   11.2060 C   0  0  0  0  0  0  0  0  0  0  0  0
    6.4386   -4.8028    4.3151 C   0  0  0  0  0  0  0  0  0  0  0  0
    5.7964   -3.7201    3.8981 C   0  0  0  0  0  0  0  0  0  0  0  0
    3.3602   -1.7370    3.3823 C   0  0  0  0  0  0  0  0  0  0  0  0
    2.6882   -1.4025    2.2027 C   0  0  0  0  0  0  0  0  0  0  0  0
    2.8955    0.1547   -1.8636 H   0  0  0  0  0  0  0  0  0  0  0  0
    5.2365    0.8118   -1.4822 H   0  0  0  0  0  0  0  0  0  0  0  0
    5.3140   -0.2842   -0.1170 H   0  0  0  0  0  0  0  0  0  0  0  0
    6.4548   -1.2960   -1.9330 H   0  0  0  0  0  0  0  0  0  0  0  0
    5.0647   -2.2519   -1.4521 H   0  0  0  0  0  0  0  0  0  0  0  0
    5.4802   -2.0931   -3.9286 H   0  0  0  0  0  0  0  0  0  0  0  0
    3.8471   -1.7436   -3.3856 H   0  0  0  0  0  0  0  0  0  0  0  0
    4.4492   -0.2670   -5.1189 H   0  0  0  0  0  0  0  0  0  0  0  0
    4.2179    0.6819   -3.6539 H   0  0  0  0  0  0  0  0  0  0  0  0
    6.7681    0.5471   -3.5001 H   0  0  0  0  0  0  0  0  0  0  0  0
    6.5014    1.2624   -7.0969 H   0  0  0  0  0  0  0  0  0  0  0  0
    4.1586    0.7404   -6.6165 H   0  0  0  0  0  0  0  0  0  0  0  0
    3.7024    2.4145   -4.7579 H   0  0  0  0  0  0  0  0  0  0  0  0
    2.5722    2.6397   -6.0734 H   0  0  0  0  0  0  0  0  0  0  0  0
    4.6856    4.4541   -5.0657 H   0  0  0  0  0  0  0  0  0  0  0  0
    3.2677    4.8228   -6.0395 H   0  0  0  0  0  0  0  0  0  0  0  0
    5.2551    5.3009   -7.4190 H   0  0  0  0  0  0  0  0  0  0  0  0
    3.1978    4.0691   -8.3749 H   0  0  0  0  0  0  0  0  0  0  0  0
    4.6201    3.8907   -9.3582 H   0  0  0  0  0  0  0  0  0  0  0  0
    4.8390    1.6317   -8.8641 H   0  0  0  0  0  0  0  0  0  0  0  0
    3.1326    1.7795   -8.4656 H   0  0  0  0  0  0  0  0  0  0  0  0
    6.8513    3.9866   -6.1232 H   0  0  0  0  0  0  0  0  0  0  0  0
    9.1557    3.9662   -8.7186 H   0  0  0  0  0  0  0  0  0  0  0  0
   10.5909    4.7504   -6.7429 H   0  0  0  0  0  0  0  0  0  0  0  0
   12.0722    3.8311   -5.0144 H   0  0  0  0  0  0  0  0  0  0  0  0
   12.3435    2.0818   -3.2527 H   0  0  0  0  0  0  0  0  0  0  0  0
   11.5226    0.5551   -3.3848 H   0  0  0  0  0  0  0  0  0  0  0  0
   14.2994    2.5483   -5.0550 H   0  0  0  0  0  0  0  0  0  0  0  0
   16.3615    1.4395   -5.8771 H   0  0  0  0  0  0  0  0  0  0  0  0
   14.9315   -2.3008   -4.9206 H   0  0  0  0  0  0  0  0  0  0  0  0
   12.7919   -1.3777   -4.0652 H   0  0  0  0  0  0  0  0  0  0  0  0
   10.1128    0.0065   -5.3786 H   0  0  0  0  0  0  0  0  0  0  0  0
    8.6349    0.9338   -7.0975 H   0  0  0  0  0  0  0  0  0  0  0  0
    4.5487    1.3064    1.2877 H   0  0  0  0  0  0  0  0  0  0  0  0
    5.8622    0.5795    3.2217 H   0  0  0  0  0  0  0  0  0  0  0  0
    9.1185   -6.1332    3.8096 H   0  0  0  0  0  0  0  0  0  0  0  0
    8.3761  -10.3697    3.9310 H   0  0  0  0  0  0  0  0  0  0  0  0
    7.2974  -10.1147    6.1695 H   0  0  0  0  0  0  0  0  0  0  0  0
    9.6387   -7.0609    7.9572 H   0  0  0  0  0  0  0  0  0  0  0  0
   10.3211   -5.8049   10.2014 H   0  0  0  0  0  0  0  0  0  0  0  0
    7.9311   -3.2054    7.9011 H   0  0  0  0  0  0  0  0  0  0  0  0
    8.5957   -3.1960   13.0179 H   0  0  0  0  0  0  0  0  0  0  0  0
   12.5411   -3.6801   14.6623 H   0  0  0  0  0  0  0  0  0  0  0  0
   13.4958   -3.7431   12.3542 H   0  0  0  0  0  0  0  0  0  0  0  0
    8.6474    2.9666    9.4504 H   0  0  0  0  0  0  0  0  0  0  0  0
    5.8799    5.7570   11.1983 H   0  0  0  0  0  0  0  0  0  0  0  0
    4.0008    4.1678   10.7711 H   0  0  0  0  0  0  0  0  0  0  0  0
    5.1468    2.5168    7.1905 H   0  0  0  0  0  0  0  0  0  0  0  0
    4.2376    1.2181    5.1913 H   0  0  0  0  0  0  0  0  0  0  0  0
    6.8248   -1.3664    7.3401 H   0  0  0  0  0  0  0  0  0  0  0  0
    8.2169    1.2427   11.4444 H   0  0  0  0  0  0  0  0  0  0  0  0
    9.5861   -0.8058   12.0978 H   0  0  0  0  0  0  0  0  0  0  0  0
    6.4826   -5.7151    3.7390 H   0  0  0  0  0  0  0  0  0  0  0  0
    5.2633   -3.5917    2.9779 H   0  0  0  0  0  0  0  0  0  0  0  0
    2.9907   -2.5584    3.9937 H   0  0  0  0  0  0  0  0  0  0  0  0
    1.8225   -1.9792    1.8858 H   0  0  0  0  0  0  0  0  0  0  0  0
  1  2  2  0  0  0  0
  2  3  1  0  0  0  0
  2 35  1  0  0  0  0
  3  4  1  0  0  0  0
  3 98  1  0  0  0  0
  4  5  1  0  0  0  0
  4 99  1  0  0  0  0
  4100  1  0  0  0  0
  5  6  1  0  0  0  0
  5101  1  0  0  0  0
  5102  1  0  0  0  0
  6  7  1  0  0  0  0
  6103  1  0  0  0  0
  6104  1  0  0  0  0
  7  8  1  0  0  0  0
  7105  1  0  0  0  0
  7106  1  0  0  0  0
  8  9  1  0  0  0  0
  8107  1  0  0  0  0
  9 10  2  0  0  0  0
  9 11  1  0  0  0  0
 11 12  1  0  0  0  0
 11 18  1  0  0  0  0
 11108  1  6  0  0  0
 12 13  1  0  0  0  0
 12 17  1  0  0  0  0
 12109  1  0  0  0  0
 13 14  1  0  0  0  0
 13110  1  0  0  0  0
 13111  1  0  0  0  0
 14 15  1  0  0  0  0
 14112  1  0  0  0  0
 14113  1  0  0  0  0
 15 16  1  0  0  0  0
 15 18  1  0  0  0  0
 15114  1  0  0  0  0
 16 17  1  0  0  0  0
 16115  1  0  0  0  0
 16116  1  0  0  0  0
 17117  1  0  0  0  0
 17118  1  0  0  0  0
 18119  1  1  0  0  0
 18 19  1  0  0  0  0
 19 20  2  0  0  0  0
 19 21  1  0  0  0  0
 21 22  1  0  0  0  0
 21120  1  0  0  0  0
 22 23  1  0  0  0  0
 22 34  2  0  0  0  0
 23 24  2  0  0  0  0
 23121  1  0  0  0  0
 24 25  1  0  0  0  0
 24122  1  0  0  0  0
 25 26  1  0  0  0  0
 25 33  2  0  0  0  0
 26 27  1  0  0  0  0
 26123  1  0  0  0  0
 26124  1  0  0  0  0
 27 28  1  0  0  0  0
 27 32  2  0  0  0  0
 28 29  2  0  0  0  0
 28125  1  0  0  0  0
 29 30  1  0  0  0  0
 29126  1  0  0  0  0
 30 31  2  0  0  0  0
 31 32  1  0  0  0  0
 31127  1  0  0  0  0
 32128  1  0  0  0  0
 33 34  1  0  0  0  0
 33129  1  0  0  0  0
 34130  1  0  0  0  0
 35 36  1  0  0  0  0
 35 97  2  0  0  0  0
 36 37  2  0  0  0  0
 36131  1  0  0  0  0
 37 38  1  0  0  0  0
 37132  1  0  0  0  0
 38 39  1  0  0  0  0
 38 96  2  0  0  0  0
 39 40  1  0  0  0  0
 39 90  2  0  0  0  0
 40 41  2  0  0  0  0
 40 95  1  0  0  0  0
 41 42  1  0  0  0  0
 42 43  2  0  0  0  0
 42 94  1  0  0  0  0
 43 44  1  0  0  0  0
 43 55  1  0  0  0  0
 44 45  1  0  0  0  0
 44 53  2  0  0  0  0
 45 46  2  0  0  0  0
 45133  1  0  0  0  0
 46 47  1  0  0  0  0
 46 51  1  0  0  0  0
 47 48  2  0  0  0  0
 47 49  2  0  0  0  0
 47 50  1  0  0  0  0
 51 52  2  0  0  0  0
 51134  1  0  0  0  0
 52 53  1  0  0  0  0
 52135  1  0  0  0  0
 53 54  1  0  0  0  0
 55 56  2  0  0  0  0
 55 59  1  0  0  0  0
 56 57  1  0  0  0  0
 56136  1  0  0  0  0
 57 58  2  0  0  0  0
 57137  1  0  0  0  0
 58 59  1  0  0  0  0
 58 60  1  0  0  0  0
 59138  1  0  0  0  0
 60 61  1  0  0  0  0
 60 72  2  0  0  0  0
 61 62  1  0  0  0  0
 61 70  2  0  0  0  0
 62 63  2  0  0  0  0
 62139  1  0  0  0  0
 63 64  1  0  0  0  0
 63 68  1  0  0  0  0
 64 65  2  0  0  0  0
 64 66  2  0  0  0  0
 64 67  1  0  0  0  0
 68 69  2  0  0  0  0
 68140  1  0  0  0  0
 69 70  1  0  0  0  0
 69141  1  0  0  0  0
 70 71  1  0  0  0  0
 72 73  1  0  0  0  0
 72 93  1  0  0  0  0
 73 74  2  0  0  0  0
 74 75  1  0  0  0  0
 74 92  1  0  0  0  0
 75 76  1  0  0  0  0
 75 87  2  0  0  0  0
 76 77  1  0  0  0  0
 76 85  2  0  0  0  0
 77 78  2  0  0  0  0
 77142  1  0  0  0  0
 78 79  1  0  0  0  0
 78 83  1  0  0  0  0
 79 80  2  0  0  0  0
 79 81  2  0  0  0  0
 79 82  1  0  0  0  0
 83 84  2  0  0  0  0
 83143  1  0  0  0  0
 84 85  1  0  0  0  0
 84144  1  0  0  0  0
 85 86  1  0  0  0  0
 87 88  1  0  0  0  0
 87 91  1  0  0  0  0
 88 89  2  0  0  0  0
 88145  1  0  0  0  0
 89 90  1  0  0  0  0
 89146  1  0  0  0  0
 90 91  1  0  0  0  0
 91147  1  0  0  0  0
 92 93  2  0  0  0  0
 92148  1  0  0  0  0
 93149  1  0  0  0  0
 94 95  2  0  0  0  0
 94150  1  0  0  0  0
 95151  1  0  0  0  0
 96 97  1  0  0  0  0
 96152  1  0  0  0  0
 97153  1  0  0  0  0
M  CHG  3  50  -1  67  -1  82  -1
M  END
$$$$
