5_2_4277
 OpenBabel04152301373D

134144  0  0  0  0  0  0  0  0999 V2000
    1.1048   -0.2339    0.6645 C   0  0  0  0  0  0  0  0  0  0  0  0
    0.3432   -1.3909    0.0424 C   0  0  0  0  0  0  0  0  0  0  0  0
    0.7144   -2.7669    0.5158 C   0  0  0  0  0  0  0  0  0  0  0  0
    1.3914   -2.9684    1.6528 N   0  0  0  0  0  0  0  0  0  0  0  0
    1.5380   -4.3160    1.7431 N   0  0  0  0  0  0  0  0  0  0  0  0
    2.2564   -4.9212    2.8037 C   0  0  0  0  0  0  0  0  0  0  0  0
    3.2943   -5.7947    2.4964 C   0  0  0  0  0  0  0  0  0  0  0  0
    3.7765   -6.6337    3.4953 C   0  0  0  0  0  0  0  0  0  0  0  0
    3.2011   -6.5384    4.7455 C   0  0  0  0  0  0  0  0  0  0  0  0
    3.6294   -7.6070    6.0112 Cl  0  0  0  0  0  0  0  0  0  0  0  0
    2.2412   -5.6367    5.0431 N   0  0  0  0  0  0  0  0  0  0  0  0
    1.7659   -4.8052    4.0601 N   0  0  0  0  0  0  0  0  0  0  0  0
    0.8552   -4.9804    0.7364 C   0  0  0  0  0  0  0  0  0  0  0  0
    0.5887   -6.4616    0.7240 C   0  0  0  0  0  0  0  0  0  0  0  0
    1.6758   -7.2961    0.0662 C   0  0  0  0  0  0  0  0  0  0  0  0
    0.3686   -3.9974   -0.1127 C   0  0  0  0  0  0  0  0  0  0  0  0
   -0.4181   -4.1957   -1.3684 C   0  0  0  0  0  0  0  0  0  0  0  0
    0.3257   -5.0572   -2.3760 C   0  0  0  0  0  0  0  0  0  0  0  0
   -0.0641   -6.1919   -2.6553 O   0  0  0  0  0  0  0  0  0  0  0  0
    1.4457   -4.5725   -2.9941 N   0  0  0  0  0  0  0  0  0  0  0  0
    2.0111   -3.2361   -2.9276 C   0  0  0  0  0  0  0  0  0  0  0  0
    3.2128   -3.1104   -1.9852 C   0  0  0  0  0  0  0  0  0  0  0  0
    4.4928   -3.6301   -2.6127 C   0  0  0  0  0  0  0  0  0  0  0  0
    4.9356   -2.8251   -3.7583 N   0  0  0  0  0  0  0  0  0  0  0  0
    6.0310   -3.0213   -4.5915 C   0  0  0  0  0  0  0  0  0  0  0  0
    6.4613   -2.1110   -5.2737 O   0  0  0  0  0  0  0  0  0  0  0  0
    6.6481   -4.3620   -4.6229 C   0  0  0  0  0  0  0  0  0  0  0  0
    8.0287   -4.5646   -4.7156 C   0  0  0  0  0  0  0  0  0  0  0  0
    8.5196   -5.8676   -4.6070 C   0  0  0  0  0  0  0  0  0  0  0  0
    7.6265   -6.9040   -4.3009 C   0  0  0  0  0  0  0  0  0  0  0  0
    8.0386   -8.2782   -4.0485 C   0  0  0  0  0  0  0  0  0  0  0  0
    8.9257   -8.4249   -2.8671 C   0  0  0  0  0  0  0  0  0  0  0  0
   10.1741   -8.7503   -2.8489 N   0  0  0  0  0  0  0  0  0  0  0  0
   10.5236   -8.8142   -1.5037 C   0  0  0  0  0  0  0  0  0  0  0  0
   11.4308   -9.7281   -1.0572 C   0  0  0  0  0  0  0  0  0  0  0  0
   11.4036  -10.3909    0.3067 C   0  0  0  0  0  0  0  0  0  0  0  0
   12.4230  -11.3237    0.5789 C   0  0  0  0  0  0  0  0  0  0  0  0
   12.2967  -12.2533    1.6252 C   0  0  0  0  0  0  0  0  0  0  0  0
   13.4912  -13.6103    1.7125 S   0  0  0  0  0  0  0  0  0  0  0  0
   13.4022  -14.1641    0.3659 O   0  0  0  0  0  0  0  0  0  0  0  0
   14.7236  -12.9015    2.0397 O   0  0  0  0  0  0  0  0  0  0  0  0
   12.9583  -14.4603    2.7744 O   0  5  0  0  0  0  0  0  0  0  0  0
   11.2095  -12.2316    2.4920 C   0  0  0  0  0  0  0  0  0  0  0  0
   10.2396  -11.2648    2.3060 C   0  0  0  0  0  0  0  0  0  0  0  0
   10.3271  -10.3830    1.2243 C   0  0  0  0  0  0  0  0  0  0  0  0
    9.2551   -9.5957    1.0898 F   0  0  0  0  0  0  0  0  0  0  0  0
   12.1582  -10.3052   -2.1699 C   0  0  0  0  0  0  0  0  0  0  0  0
   12.9362   -9.7856   -3.1877 C   0  0  0  0  0  0  0  0  0  0  0  0
   12.5522  -10.5197   -4.3497 C   0  0  0  0  0  0  0  0  0  0  0  0
   11.6519  -11.5165   -3.9651 C   0  0  0  0  0  0  0  0  0  0  0  0
   11.7865  -11.5627   -2.5979 N   0  0  0  0  0  0  0  0  0  0  0  0
   10.7167  -12.3311   -4.7235 C   0  0  0  0  0  0  0  0  0  0  0  0
   10.8513  -12.2976   -6.2375 C   0  0  0  0  0  0  0  0  0  0  0  0
    9.9057  -11.7413   -7.1332 C   0  0  0  0  0  0  0  0  0  0  0  0
   10.1991  -11.6605   -8.5115 C   0  0  0  0  0  0  0  0  0  0  0  0
    8.9792  -10.9943   -9.6942 S   0  0  0  0  0  0  0  0  0  0  0  0
    7.7452  -11.6836   -9.3368 O   0  0  0  0  0  0  0  0  0  0  0  0
    9.0154   -9.5613   -9.4142 O   0  0  0  0  0  0  0  0  0  0  0  0
    9.5299  -11.3702  -10.9984 O   0  5  0  0  0  0  0  0  0  0  0  0
   11.4279  -12.1038   -9.0102 C   0  0  0  0  0  0  0  0  0  0  0  0
   12.3647  -12.6414   -8.1366 C   0  0  0  0  0  0  0  0  0  0  0  0
   12.0693  -12.7446   -6.7784 C   0  0  0  0  0  0  0  0  0  0  0  0
   13.0192  -13.2583   -5.9794 F   0  0  0  0  0  0  0  0  0  0  0  0
    9.6385  -12.9738   -4.1801 C   0  0  0  0  0  0  0  0  0  0  0  0
    8.5693  -13.3776   -4.9669 N   0  0  0  0  0  0  0  0  0  0  0  0
    7.5277  -13.3196   -4.1808 C   0  0  0  0  0  0  0  0  0  0  0  0
    6.2225  -12.7522   -4.6084 C   0  0  0  0  0  0  0  0  0  0  0  0
    4.9090  -13.4329   -4.3852 C   0  0  0  0  0  0  0  0  0  0  0  0
    4.7125  -14.8279   -4.5195 C   0  0  0  0  0  0  0  0  0  0  0  0
    3.5086  -15.4307   -4.0677 C   0  0  0  0  0  0  0  0  0  0  0  0
    3.2611  -17.2385   -4.1743 S   0  0  0  0  0  0  0  0  0  0  0  0
    3.2132  -17.4635   -5.6140 O   0  0  0  0  0  0  0  0  0  0  0  0
    4.4300  -17.7571   -3.4735 O   0  0  0  0  0  0  0  0  0  0  0  0
    1.9901  -17.4526   -3.4794 O   0  5  0  0  0  0  0  0  0  0  0  0
    2.4968  -14.6742   -3.4727 C   0  0  0  0  0  0  0  0  0  0  0  0
    2.6713  -13.3072   -3.3405 C   0  0  0  0  0  0  0  0  0  0  0  0
    3.8537  -12.7081   -3.7843 C   0  0  0  0  0  0  0  0  0  0  0  0
    3.9734  -11.3956   -3.5279 F   0  0  0  0  0  0  0  0  0  0  0  0
    6.4467  -11.4302   -4.8560 C   0  0  0  0  0  0  0  0  0  0  0  0
    5.6467  -10.4801   -5.6072 C   0  0  0  0  0  0  0  0  0  0  0  0
    6.2485   -9.2706   -5.5553 C   0  0  0  0  0  0  0  0  0  0  0  0
    7.3892   -9.3177   -4.6266 C   0  0  0  0  0  0  0  0  0  0  0  0
    7.5126  -10.6512   -4.4002 N   0  0  0  0  0  0  0  0  0  0  0  0
    7.8317  -13.3193   -2.7565 C   0  0  0  0  0  0  0  0  0  0  0  0
    9.1392  -13.0411   -2.8053 C   0  0  0  0  0  0  0  0  0  0  0  0
    9.5175   -8.0649   -0.8054 C   0  0  0  0  0  0  0  0  0  0  0  0
    8.4207   -7.9660   -1.5586 C   0  0  0  0  0  0  0  0  0  0  0  0
    6.2749   -6.6522   -4.1270 C   0  0  0  0  0  0  0  0  0  0  0  0
    5.7838   -5.4391   -4.4990 C   0  0  0  0  0  0  0  0  0  0  0  0
    0.7538    0.6880    0.2501 H   0  0  0  0  0  0  0  0  0  0  0  0
    2.1492   -0.3427    0.4588 H   0  0  0  0  0  0  0  0  0  0  0  0
    0.9481   -0.2318    1.7230 H   0  0  0  0  0  0  0  0  0  0  0  0
    0.5047   -1.3559   -1.0148 H   0  0  0  0  0  0  0  0  0  0  0  0
   -0.6753   -1.2533    0.3402 H   0  0  0  0  0  0  0  0  0  0  0  0
    3.6981   -5.8197    1.5470 H   0  0  0  0  0  0  0  0  0  0  0  0
    4.5382   -7.3042    3.3078 H   0  0  0  0  0  0  0  0  0  0  0  0
   -0.3269   -6.6313    0.1969 H   0  0  0  0  0  0  0  0  0  0  0  0
    0.5479   -6.7703    1.7477 H   0  0  0  0  0  0  0  0  0  0  0  0
    1.7582   -7.0251   -0.9656 H   0  0  0  0  0  0  0  0  0  0  0  0
    1.4251   -8.3334    0.1436 H   0  0  0  0  0  0  0  0  0  0  0  0
    2.6093   -7.1171    0.5576 H   0  0  0  0  0  0  0  0  0  0  0  0
   -0.6133   -3.2401   -1.8083 H   0  0  0  0  0  0  0  0  0  0  0  0
   -1.3281   -4.6971   -1.1127 H   0  0  0  0  0  0  0  0  0  0  0  0
    1.9333   -5.2147   -3.5590 H   0  0  0  0  0  0  0  0  0  0  0  0
    1.2486   -2.5652   -2.5909 H   0  0  0  0  0  0  0  0  0  0  0  0
    2.3641   -3.0016   -3.9101 H   0  0  0  0  0  0  0  0  0  0  0  0
    3.0130   -3.6711   -1.0960 H   0  0  0  0  0  0  0  0  0  0  0  0
    3.3522   -2.0718   -1.7689 H   0  0  0  0  0  0  0  0  0  0  0  0
    4.3273   -4.6339   -2.9444 H   0  0  0  0  0  0  0  0  0  0  0  0
    5.2595   -3.5779   -1.8682 H   0  0  0  0  0  0  0  0  0  0  0  0
    4.3806   -2.0386   -3.9646 H   0  0  0  0  0  0  0  0  0  0  0  0
    8.6702   -3.7694   -4.8610 H   0  0  0  0  0  0  0  0  0  0  0  0
    9.5226   -6.0641   -4.7496 H   0  0  0  0  0  0  0  0  0  0  0  0
   13.2774  -11.3246    0.0001 H   0  0  0  0  0  0  0  0  0  0  0  0
   11.1289  -12.9209    3.2558 H   0  0  0  0  0  0  0  0  0  0  0  0
    9.4497  -11.1936    2.9663 H   0  0  0  0  0  0  0  0  0  0  0  0
   13.6393   -9.0331   -3.1218 H   0  0  0  0  0  0  0  0  0  0  0  0
   12.8834  -10.3440   -5.3112 H   0  0  0  0  0  0  0  0  0  0  0  0
   11.6433  -12.3517   -2.0267 H   0  0  0  0  0  0  0  0  0  0  0  0
    9.0010  -11.3946   -6.7777 H   0  0  0  0  0  0  0  0  0  0  0  0
   11.6370  -12.0322  -10.0183 H   0  0  0  0  0  0  0  0  0  0  0  0
   13.2780  -12.9639   -8.4927 H   0  0  0  0  0  0  0  0  0  0  0  0
    5.4484  -15.4106   -4.9483 H   0  0  0  0  0  0  0  0  0  0  0  0
    1.6325  -15.1271   -3.1368 H   0  0  0  0  0  0  0  0  0  0  0  0
    1.9288  -12.7308   -2.9145 H   0  0  0  0  0  0  0  0  0  0  0  0
    4.7648  -10.6926   -6.0993 H   0  0  0  0  0  0  0  0  0  0  0  0
    5.9520   -8.4379   -6.0879 H   0  0  0  0  0  0  0  0  0  0  0  0
    8.2959  -11.0401   -3.9480 H   0  0  0  0  0  0  0  0  0  0  0  0
    7.2166  -13.4856   -1.9447 H   0  0  0  0  0  0  0  0  0  0  0  0
    9.7277  -12.8913   -1.9709 H   0  0  0  0  0  0  0  0  0  0  0  0
    9.6265   -7.6626    0.1387 H   0  0  0  0  0  0  0  0  0  0  0  0
    7.4731   -7.6526   -1.2964 H   0  0  0  0  0  0  0  0  0  0  0  0
    5.6533   -7.3704   -3.7234 H   0  0  0  0  0  0  0  0  0  0  0  0
    4.7760   -5.3216   -4.6875 H   0  0  0  0  0  0  0  0  0  0  0  0
  1  2  1  0  0  0  0
  1 90  1  0  0  0  0
  1 91  1  0  0  0  0
  1 92  1  0  0  0  0
  2  3  1  0  0  0  0
  2 93  1  0  0  0  0
  2 94  1  0  0  0  0
  3  4  2  0  0  0  0
  3 16  1  0  0  0  0
  4  5  1  0  0  0  0
  5  6  1  0  0  0  0
  5 13  1  0  0  0  0
  6  7  1  0  0  0  0
  6 12  2  0  0  0  0
  7  8  2  0  0  0  0
  7 95  1  0  0  0  0
  8  9  1  0  0  0  0
  8 96  1  0  0  0  0
  9 10  1  0  0  0  0
  9 11  2  0  0  0  0
 11 12  1  0  0  0  0
 13 14  1  0  0  0  0
 13 16  2  0  0  0  0
 14 15  1  0  0  0  0
 14 97  1  0  0  0  0
 14 98  1  0  0  0  0
 15 99  1  0  0  0  0
 15100  1  0  0  0  0
 15101  1  0  0  0  0
 16 17  1  0  0  0  0
 17 18  1  0  0  0  0
 17102  1  0  0  0  0
 17103  1  0  0  0  0
 18 19  2  0  0  0  0
 18 20  1  0  0  0  0
 20 21  1  0  0  0  0
 20104  1  0  0  0  0
 21 22  1  0  0  0  0
 21105  1  0  0  0  0
 21106  1  0  0  0  0
 22 23  1  0  0  0  0
 22107  1  0  0  0  0
 22108  1  0  0  0  0
 23 24  1  0  0  0  0
 23109  1  0  0  0  0
 23110  1  0  0  0  0
 24 25  1  0  0  0  0
 24111  1  0  0  0  0
 25 26  2  0  0  0  0
 25 27  1  0  0  0  0
 27 28  1  0  0  0  0
 27 89  2  0  0  0  0
 28 29  2  0  0  0  0
 28112  1  0  0  0  0
 29 30  1  0  0  0  0
 29113  1  0  0  0  0
 30 31  1  0  0  0  0
 30 88  2  0  0  0  0
 31 32  1  0  0  0  0
 31 82  2  0  0  0  0
 32 33  2  0  0  0  0
 32 87  1  0  0  0  0
 33 34  1  0  0  0  0
 34 35  2  0  0  0  0
 34 86  1  0  0  0  0
 35 36  1  0  0  0  0
 35 47  1  0  0  0  0
 36 37  1  0  0  0  0
 36 45  2  0  0  0  0
 37 38  2  0  0  0  0
 37114  1  0  0  0  0
 38 39  1  0  0  0  0
 38 43  1  0  0  0  0
 39 40  2  0  0  0  0
 39 41  2  0  0  0  0
 39 42  1  0  0  0  0
 43 44  2  0  0  0  0
 43115  1  0  0  0  0
 44 45  1  0  0  0  0
 44116  1  0  0  0  0
 45 46  1  0  0  0  0
 47 48  2  0  0  0  0
 47 51  1  0  0  0  0
 48 49  1  0  0  0  0
 48117  1  0  0  0  0
 49 50  2  0  0  0  0
 49118  1  0  0  0  0
 50 51  1  0  0  0  0
 50 52  1  0  0  0  0
 51119  1  0  0  0  0
 52 53  1  0  0  0  0
 52 64  2  0  0  0  0
 53 54  1  0  0  0  0
 53 62  2  0  0  0  0
 54 55  2  0  0  0  0
 54120  1  0  0  0  0
 55 56  1  0  0  0  0
 55 60  1  0  0  0  0
 56 57  2  0  0  0  0
 56 58  2  0  0  0  0
 56 59  1  0  0  0  0
 60 61  2  0  0  0  0
 60121  1  0  0  0  0
 61 62  1  0  0  0  0
 61122  1  0  0  0  0
 62 63  1  0  0  0  0
 64 65  1  0  0  0  0
 64 85  1  0  0  0  0
 65 66  2  0  0  0  0
 66 67  1  0  0  0  0
 66 84  1  0  0  0  0
 67 68  1  0  0  0  0
 67 79  2  0  0  0  0
 68 69  1  0  0  0  0
 68 77  2  0  0  0  0
 69 70  2  0  0  0  0
 69123  1  0  0  0  0
 70 71  1  0  0  0  0
 70 75  1  0  0  0  0
 71 72  2  0  0  0  0
 71 73  2  0  0  0  0
 71 74  1  0  0  0  0
 75 76  2  0  0  0  0
 75124  1  0  0  0  0
 76 77  1  0  0  0  0
 76125  1  0  0  0  0
 77 78  1  0  0  0  0
 79 80  1  0  0  0  0
 79 83  1  0  0  0  0
 80 81  2  0  0  0  0
 80126  1  0  0  0  0
 81 82  1  0  0  0  0
 81127  1  0  0  0  0
 82 83  1  0  0  0  0
 83128  1  0  0  0  0
 84 85  2  0  0  0  0
 84129  1  0  0  0  0
 85130  1  0  0  0  0
 86 87  2  0  0  0  0
 86131  1  0  0  0  0
 87132  1  0  0  0  0
 88 89  1  0  0  0  0
 88133  1  0  0  0  0
 89134  1  0  0  0  0
M  CHG  3  42  -1  59  -1  74  -1
M  END
$$$$
