5_2_883
 OpenBabel04152301363D

138148  0  0  1  0  0  0  0  0999 V2000
    0.2896    0.1645   -0.2757 C   0  0  0  0  0  0  0  0  0  0  0  0
    0.5067    1.1053    0.8956 C   0  0  0  0  0  0  0  0  0  0  0  0
    1.0652    2.3489    0.4564 O   0  0  0  0  0  0  0  0  0  0  0  0
    2.3980    2.3602    0.2696 C   0  0  0  0  0  0  0  0  0  0  0  0
    3.1661    1.4161    0.3425 O   0  0  0  0  0  0  0  0  0  0  0  0
    2.8804    3.7391   -0.1083 C   0  0  0  0  0  0  0  0  0  0  0  0
    2.1513    4.8090   -0.0552 N   0  0  0  0  0  0  0  0  0  0  0  0
    2.9580    5.8507   -0.4281 N   0  0  0  0  0  0  0  0  0  0  0  0
    2.4955    7.1443   -0.1907 C   0  0  0  0  0  0  0  0  0  0  0  0
    2.4519    8.0548   -1.2603 C   0  0  0  0  0  0  0  0  0  0  0  0
    1.9772    9.3616   -1.0980 C   0  0  0  0  0  0  0  0  0  0  0  0
    1.5011    9.7923    0.1413 C   0  0  0  0  0  0  0  0  0  0  0  0
    1.0391   11.2062    0.3392 C   0  0  0  0  0  0  0  0  0  0  0  0
    1.5225    8.8989    1.2170 C   0  0  0  0  0  0  0  0  0  0  0  0
    2.0113    7.5927    1.0564 C   0  0  0  0  0  0  0  0  0  0  0  0
    2.0806    6.6118    2.4845 Cl  0  0  0  0  0  0  0  0  0  0  0  0
    4.3862    5.4596   -0.5464 C   0  0  1  0  0  0  0  0  0  0  0  0
    5.0425    5.9291   -1.8450 C   0  0  0  0  0  0  0  0  0  0  0  0
    5.1969    5.7722    0.7504 C   0  0  0  0  0  0  0  0  0  0  0  0
    5.3952    4.8919    1.6015 O   0  0  0  0  0  0  0  0  0  0  0  0
    5.7470    6.9755    1.0612 N   0  0  0  0  0  0  0  0  0  0  0  0
    5.7969    8.2606    0.3924 C   0  0  0  0  0  0  0  0  0  0  0  0
    5.3119    9.4147    1.2657 C   0  0  0  0  0  0  0  0  0  0  0  0
    6.0685    9.6325    2.5702 C   0  0  0  0  0  0  0  0  0  0  0  0
    7.4484   10.0304    2.3608 N   0  0  0  0  0  0  0  0  0  0  0  0
    8.1336   11.1001    2.8837 C   0  0  0  0  0  0  0  0  0  0  0  0
    9.2540   11.3608    2.4530 O   0  0  0  0  0  0  0  0  0  0  0  0
    7.5283   11.9460    3.9391 C   0  0  0  0  0  0  0  0  0  0  0  0
    7.6431   13.3357    3.8293 C   0  0  0  0  0  0  0  0  0  0  0  0
    7.0868   14.1624    4.8092 C   0  0  0  0  0  0  0  0  0  0  0  0
    6.4066   13.6054    5.9022 C   0  0  0  0  0  0  0  0  0  0  0  0
    5.8171   14.4714    6.9518 C   0  0  0  0  0  0  0  0  0  0  0  0
    6.4495   14.5383    8.3131 C   0  0  0  0  0  0  0  0  0  0  0  0
    6.0136   15.1228    9.3992 N   0  0  0  0  0  0  0  0  0  0  0  0
    6.9239   14.7938   10.3964 C   0  0  0  0  0  0  0  0  0  0  0  0
    6.8906   15.1137   11.7136 C   0  0  0  0  0  0  0  0  0  0  0  0
    7.9416   14.4846   12.5832 C   0  0  0  0  0  0  0  0  0  0  0  0
    9.2747   14.9246   12.5691 C   0  0  0  0  0  0  0  0  0  0  0  0
   10.2409   14.2310   13.3136 C   0  0  0  0  0  0  0  0  0  0  0  0
   11.9843   14.6946   13.1242 S   0  0  0  0  0  0  0  0  0  0  0  0
   12.1732   14.5687   11.6814 O   0  0  0  0  0  0  0  0  0  0  0  0
   12.0067   16.0516   13.6575 O   0  0  0  0  0  0  0  0  0  0  0  0
   12.6923   13.6977   13.9253 O   0  5  0  0  0  0  0  0  0  0  0  0
    9.8925   13.1424   14.1193 C   0  0  0  0  0  0  0  0  0  0  0  0
    8.5650   12.7256   14.1634 C   0  0  0  0  0  0  0  0  0  0  0  0
    7.6083   13.3825   13.3898 C   0  0  0  0  0  0  0  0  0  0  0  0
    6.3517   12.9108   13.4138 F   0  0  0  0  0  0  0  0  0  0  0  0
    5.8858   15.9461   12.3234 C   0  0  0  0  0  0  0  0  0  0  0  0
    5.7366   16.2995   13.6543 C   0  0  0  0  0  0  0  0  0  0  0  0
    4.6260   17.1497   13.7635 C   0  0  0  0  0  0  0  0  0  0  0  0
    4.1006   17.3418   12.4968 C   0  0  0  0  0  0  0  0  0  0  0  0
    4.8649   16.5784   11.6298 N   0  0  0  0  0  0  0  0  0  0  0  0
    3.0073   18.1860   12.0921 C   0  0  0  0  0  0  0  0  0  0  0  0
    2.4332   19.1383   13.0968 C   0  0  0  0  0  0  0  0  0  0  0  0
    1.3281   18.7808   13.8856 C   0  0  0  0  0  0  0  0  0  0  0  0
    0.8108   19.7012   14.8088 C   0  0  0  0  0  0  0  0  0  0  0  0
   -0.6508   19.2463   15.7828 S   0  0  0  0  0  0  0  0  0  0  0  0
   -1.5464   18.6945   14.7709 O   0  0  0  0  0  0  0  0  0  0  0  0
   -0.0980   18.2903   16.7365 O   0  0  0  0  0  0  0  0  0  0  0  0
   -1.0847   20.5181   16.3587 O   0  5  0  0  0  0  0  0  0  0  0  0
    1.3778   20.9714   14.9585 C   0  0  0  0  0  0  0  0  0  0  0  0
    2.4790   21.3244   14.1815 C   0  0  0  0  0  0  0  0  0  0  0  0
    2.9969   20.4134   13.2613 C   0  0  0  0  0  0  0  0  0  0  0  0
    4.0468   20.7946   12.5168 F   0  0  0  0  0  0  0  0  0  0  0  0
    2.4572   18.2000   10.8539 C   0  0  0  0  0  0  0  0  0  0  0  0
    2.7990   17.4401    9.7430 N   0  0  0  0  0  0  0  0  0  0  0  0
    1.9649   17.7991    8.7985 C   0  0  0  0  0  0  0  0  0  0  0  0
    1.8617   17.2883    7.3921 C   0  0  0  0  0  0  0  0  0  0  0  0
    0.6997   17.6461    6.5467 C   0  0  0  0  0  0  0  0  0  0  0  0
    0.7708   18.6940    5.6186 C   0  0  0  0  0  0  0  0  0  0  0  0
   -0.3484   18.9932    4.8284 C   0  0  0  0  0  0  0  0  0  0  0  0
   -0.2193   20.3293    3.6092 S   0  0  0  0  0  0  0  0  0  0  0  0
   -0.0437   21.4997    4.4617 O   0  0  0  0  0  0  0  0  0  0  0  0
    0.9473   19.9203    2.8329 O   0  0  0  0  0  0  0  0  0  0  0  0
   -1.4914   20.2613    2.8933 O   0  5  0  0  0  0  0  0  0  0  0  0
   -1.5373   18.2670    4.9501 C   0  0  0  0  0  0  0  0  0  0  0  0
   -1.6079   17.2245    5.8713 C   0  0  0  0  0  0  0  0  0  0  0  0
   -0.4961   16.9203    6.6559 C   0  0  0  0  0  0  0  0  0  0  0  0
   -0.5916   15.9022    7.5247 F   0  0  0  0  0  0  0  0  0  0  0  0
    2.8171   16.4733    6.9097 C   0  0  0  0  0  0  0  0  0  0  0  0
    2.8441   15.9010    5.5672 C   0  0  0  0  0  0  0  0  0  0  0  0
    3.9340   15.1239    5.4445 C   0  0  0  0  0  0  0  0  0  0  0  0
    4.6815   15.1493    6.7033 C   0  0  0  0  0  0  0  0  0  0  0  0
    3.9488   15.9801    7.5110 N   0  0  0  0  0  0  0  0  0  0  0  0
    1.0098   18.8435    9.1939 C   0  0  0  0  0  0  0  0  0  0  0  0
    1.3515   19.0504   10.4594 C   0  0  0  0  0  0  0  0  0  0  0  0
    7.9520   13.9830    9.7754 C   0  0  0  0  0  0  0  0  0  0  0  0
    7.7239   13.8246    8.4793 C   0  0  0  0  0  0  0  0  0  0  0  0
    6.3132   12.2101    6.0157 C   0  0  0  0  0  0  0  0  0  0  0  0
    6.8975   11.3836    5.0543 C   0  0  0  0  0  0  0  0  0  0  0  0
    4.2580    3.9121   -0.6476 C   0  0  0  0  0  0  0  0  0  0  0  0
   -0.1274   -0.7552    0.0781 H   0  0  0  0  0  0  0  0  0  0  0  0
    1.2261   -0.0297   -0.7555 H   0  0  0  0  0  0  0  0  0  0  0  0
   -0.3829    0.6152   -0.9753 H   0  0  0  0  0  0  0  0  0  0  0  0
    1.1766    0.6474    1.5930 H   0  0  0  0  0  0  0  0  0  0  0  0
   -0.4387    1.2996    1.3574 H   0  0  0  0  0  0  0  0  0  0  0  0
    2.7788    7.7516   -2.1910 H   0  0  0  0  0  0  0  0  0  0  0  0
    1.9793   10.0110   -1.9001 H   0  0  0  0  0  0  0  0  0  0  0  0
    1.0932   11.7326   -0.5908 H   0  0  0  0  0  0  0  0  0  0  0  0
    1.6663   11.6889    1.0593 H   0  0  0  0  0  0  0  0  0  0  0  0
    0.0283   11.2053    0.6902 H   0  0  0  0  0  0  0  0  0  0  0  0
    1.1749    9.2034    2.1397 H   0  0  0  0  0  0  0  0  0  0  0  0
    5.1533    6.9931   -1.8242 H   0  0  0  0  0  0  0  0  0  0  0  0
    4.4285    5.6506   -2.6759 H   0  0  0  0  0  0  0  0  0  0  0  0
    6.0050    5.4721   -1.9437 H   0  0  0  0  0  0  0  0  0  0  0  0
    6.2125    6.9740    1.9287 H   0  0  0  0  0  0  0  0  0  0  0  0
    5.1805    8.2132   -0.4809 H   0  0  0  0  0  0  0  0  0  0  0  0
    6.8217    8.4535    0.1525 H   0  0  0  0  0  0  0  0  0  0  0  0
    4.2862    9.2316    1.5094 H   0  0  0  0  0  0  0  0  0  0  0  0
    5.4748   10.3004    0.6878 H   0  0  0  0  0  0  0  0  0  0  0  0
    6.0569    8.7198    3.1285 H   0  0  0  0  0  0  0  0  0  0  0  0
    5.5809   10.4263    3.0966 H   0  0  0  0  0  0  0  0  0  0  0  0
    7.9677    9.4508    1.7578 H   0  0  0  0  0  0  0  0  0  0  0  0
    8.1386   13.7506    3.0247 H   0  0  0  0  0  0  0  0  0  0  0  0
    7.1768   15.1873    4.7283 H   0  0  0  0  0  0  0  0  0  0  0  0
    9.5423   15.7529   12.0147 H   0  0  0  0  0  0  0  0  0  0  0  0
   10.6116   12.6534   14.6751 H   0  0  0  0  0  0  0  0  0  0  0  0
    8.2900   11.9341   14.7658 H   0  0  0  0  0  0  0  0  0  0  0  0
    6.3395   15.9902   14.4327 H   0  0  0  0  0  0  0  0  0  0  0  0
    4.2630   17.5612   14.6375 H   0  0  0  0  0  0  0  0  0  0  0  0
    4.7064   16.4966   10.6616 H   0  0  0  0  0  0  0  0  0  0  0  0
    0.8994   17.8473   13.7868 H   0  0  0  0  0  0  0  0  0  0  0  0
    0.9840   21.6407   15.6382 H   0  0  0  0  0  0  0  0  0  0  0  0
    2.9098   22.2563   14.2865 H   0  0  0  0  0  0  0  0  0  0  0  0
    1.6400   19.2411    5.5176 H   0  0  0  0  0  0  0  0  0  0  0  0
   -2.3536   18.5009    4.3637 H   0  0  0  0  0  0  0  0  0  0  0  0
   -2.4787   16.6800    5.9726 H   0  0  0  0  0  0  0  0  0  0  0  0
    2.1400   16.0663    4.8310 H   0  0  0  0  0  0  0  0  0  0  0  0
    4.2008   14.5948    4.5996 H   0  0  0  0  0  0  0  0  0  0  0  0
    4.2092   16.2020    8.4342 H   0  0  0  0  0  0  0  0  0  0  0  0
    0.2694   19.2962    8.6354 H   0  0  0  0  0  0  0  0  0  0  0  0
    0.8890   19.7301   11.0832 H   0  0  0  0  0  0  0  0  0  0  0  0
    8.7585   13.5805   10.2779 H   0  0  0  0  0  0  0  0  0  0  0  0
    8.2914   13.3305    7.7730 H   0  0  0  0  0  0  0  0  0  0  0  0
    5.8099   11.7926    6.8141 H   0  0  0  0  0  0  0  0  0  0  0  0
    6.8642   10.3582    5.1660 H   0  0  0  0  0  0  0  0  0  0  0  0
    4.3357    3.5712   -1.6589 H   0  0  0  0  0  0  0  0  0  0  0  0
    5.0182    3.3594   -0.1361 H   0  0  0  0  0  0  0  0  0  0  0  0
  1  2  1  0  0  0  0
  1 92  1  0  0  0  0
  1 93  1  0  0  0  0
  1 94  1  0  0  0  0
  2  3  1  0  0  0  0
  2 95  1  0  0  0  0
  2 96  1  0  0  0  0
  3  4  1  0  0  0  0
  4  5  2  0  0  0  0
  4  6  1  0  0  0  0
  6  7  2  0  0  0  0
  6 91  1  0  0  0  0
  7  8  1  0  0  0  0
  8  9  1  0  0  0  0
  8 17  1  0  0  0  0
  9 10  1  0  0  0  0
  9 15  2  0  0  0  0
 10 11  2  0  0  0  0
 10 97  1  0  0  0  0
 11 12  1  0  0  0  0
 11 98  1  0  0  0  0
 12 13  1  0  0  0  0
 12 14  2  0  0  0  0
 13 99  1  0  0  0  0
 13100  1  0  0  0  0
 13101  1  0  0  0  0
 14 15  1  0  0  0  0
 14102  1  0  0  0  0
 15 16  1  0  0  0  0
 17 18  1  0  0  0  0
 17 19  1  1  0  0  0
 17 91  1  0  0  0  0
 18103  1  0  0  0  0
 18104  1  0  0  0  0
 18105  1  0  0  0  0
 19 20  2  0  0  0  0
 19 21  1  0  0  0  0
 21 22  1  0  0  0  0
 21106  1  0  0  0  0
 22 23  1  0  0  0  0
 22107  1  0  0  0  0
 22108  1  0  0  0  0
 23 24  1  0  0  0  0
 23109  1  0  0  0  0
 23110  1  0  0  0  0
 24 25  1  0  0  0  0
 24111  1  0  0  0  0
 24112  1  0  0  0  0
 25 26  1  0  0  0  0
 25113  1  0  0  0  0
 26 27  2  0  0  0  0
 26 28  1  0  0  0  0
 28 29  1  0  0  0  0
 28 90  2  0  0  0  0
 29 30  2  0  0  0  0
 29114  1  0  0  0  0
 30 31  1  0  0  0  0
 30115  1  0  0  0  0
 31 32  1  0  0  0  0
 31 89  2  0  0  0  0
 32 33  1  0  0  0  0
 32 83  2  0  0  0  0
 33 34  2  0  0  0  0
 33 88  1  0  0  0  0
 34 35  1  0  0  0  0
 35 36  2  0  0  0  0
 35 87  1  0  0  0  0
 36 37  1  0  0  0  0
 36 48  1  0  0  0  0
 37 38  1  0  0  0  0
 37 46  2  0  0  0  0
 38 39  2  0  0  0  0
 38116  1  0  0  0  0
 39 40  1  0  0  0  0
 39 44  1  0  0  0  0
 40 41  2  0  0  0  0
 40 42  2  0  0  0  0
 40 43  1  0  0  0  0
 44 45  2  0  0  0  0
 44117  1  0  0  0  0
 45 46  1  0  0  0  0
 45118  1  0  0  0  0
 46 47  1  0  0  0  0
 48 49  2  0  0  0  0
 48 52  1  0  0  0  0
 49 50  1  0  0  0  0
 49119  1  0  0  0  0
 50 51  2  0  0  0  0
 50120  1  0  0  0  0
 51 52  1  0  0  0  0
 51 53  1  0  0  0  0
 52121  1  0  0  0  0
 53 54  1  0  0  0  0
 53 65  2  0  0  0  0
 54 55  1  0  0  0  0
 54 63  2  0  0  0  0
 55 56  2  0  0  0  0
 55122  1  0  0  0  0
 56 57  1  0  0  0  0
 56 61  1  0  0  0  0
 57 58  2  0  0  0  0
 57 59  2  0  0  0  0
 57 60  1  0  0  0  0
 61 62  2  0  0  0  0
 61123  1  0  0  0  0
 62 63  1  0  0  0  0
 62124  1  0  0  0  0
 63 64  1  0  0  0  0
 65 66  1  0  0  0  0
 65 86  1  0  0  0  0
 66 67  2  0  0  0  0
 67 68  1  0  0  0  0
 67 85  1  0  0  0  0
 68 69  1  0  0  0  0
 68 80  2  0  0  0  0
 69 70  1  0  0  0  0
 69 78  2  0  0  0  0
 70 71  2  0  0  0  0
 70125  1  0  0  0  0
 71 72  1  0  0  0  0
 71 76  1  0  0  0  0
 72 73  2  0  0  0  0
 72 74  2  0  0  0  0
 72 75  1  0  0  0  0
 76 77  2  0  0  0  0
 76126  1  0  0  0  0
 77 78  1  0  0  0  0
 77127  1  0  0  0  0
 78 79  1  0  0  0  0
 80 81  1  0  0  0  0
 80 84  1  0  0  0  0
 81 82  2  0  0  0  0
 81128  1  0  0  0  0
 82 83  1  0  0  0  0
 82129  1  0  0  0  0
 83 84  1  0  0  0  0
 84130  1  0  0  0  0
 85 86  2  0  0  0  0
 85131  1  0  0  0  0
 86132  1  0  0  0  0
 87 88  2  0  0  0  0
 87133  1  0  0  0  0
 88134  1  0  0  0  0
 89 90  1  0  0  0  0
 89135  1  0  0  0  0
 90136  1  0  0  0  0
 91137  1  0  0  0  0
 91138  1  0  0  0  0
M  CHG  3  43  -1  60  -1  75  -1
M  END
$$$$
