5_2_1442
 OpenBabel04152301373D

136146  0  0  0  0  0  0  0  0999 V2000
    0.8652   -0.0478   -0.2686 C   0  0  0  0  0  0  0  0  0  0  0  0
    0.6938   -0.7494   -1.5667 C   0  0  0  0  0  0  0  0  0  0  0  0
    0.9087   -0.3069   -2.8640 C   0  0  0  0  0  0  0  0  0  0  0  0
    0.7270   -1.4222   -3.6900 C   0  0  0  0  0  0  0  0  0  0  0  0
    0.8910   -1.5159   -5.0578 N   0  0  0  0  0  0  0  0  0  0  0  0
    0.8117   -2.7196   -5.5634 C   0  0  0  0  0  0  0  0  0  0  0  0
    0.9632   -2.5470   -7.2995 S   0  0  0  0  0  0  0  0  0  0  0  0
    1.1644   -3.9975   -8.2864 C   0  0  0  0  0  0  0  0  0  0  0  0
    2.4419   -4.7775   -8.0984 C   0  0  0  0  0  0  0  0  0  0  0  0
    2.4067   -6.0079   -8.0415 O   0  0  0  0  0  0  0  0  0  0  0  0
    3.6672   -4.1891   -8.0986 N   0  0  0  0  0  0  0  0  0  0  0  0
    4.0482   -2.9184   -8.6844 C   0  0  0  0  0  0  0  0  0  0  0  0
    4.6426   -1.9310   -7.6843 C   0  0  0  0  0  0  0  0  0  0  0  0
    5.9717   -2.3950   -7.1091 C   0  0  0  0  0  0  0  0  0  0  0  0
    7.0281   -2.4646   -8.1155 N   0  0  0  0  0  0  0  0  0  0  0  0
    8.3881   -2.5301   -7.9153 C   0  0  0  0  0  0  0  0  0  0  0  0
    9.1597   -2.3367   -8.8489 O   0  0  0  0  0  0  0  0  0  0  0  0
    8.9009   -2.8371   -6.5690 C   0  0  0  0  0  0  0  0  0  0  0  0
   10.0063   -2.1448   -6.0650 C   0  0  0  0  0  0  0  0  0  0  0  0
   10.4454   -2.4243   -4.7755 C   0  0  0  0  0  0  0  0  0  0  0  0
    9.7575   -3.3720   -4.0053 C   0  0  0  0  0  0  0  0  0  0  0  0
   10.1366   -3.6078   -2.6201 C   0  0  0  0  0  0  0  0  0  0  0  0
    9.9346   -2.4498   -1.7087 C   0  0  0  0  0  0  0  0  0  0  0  0
   10.8336   -1.7223   -1.1321 N   0  0  0  0  0  0  0  0  0  0  0  0
   10.1368   -0.8066   -0.3439 C   0  0  0  0  0  0  0  0  0  0  0  0
   10.6956   -0.2381    0.7634 C   0  0  0  0  0  0  0  0  0  0  0  0
    9.9234    0.2178    1.9812 C   0  0  0  0  0  0  0  0  0  0  0  0
    8.5958   -0.1740    2.2308 C   0  0  0  0  0  0  0  0  0  0  0  0
    7.9715    0.0773    3.4595 C   0  0  0  0  0  0  0  0  0  0  0  0
    6.2362   -0.3872    3.7132 S   0  0  0  0  0  0  0  0  0  0  0  0
    6.3308   -1.2977    4.8488 O   0  0  0  0  0  0  0  0  0  0  0  0
    5.6205    0.9085    3.9880 O   0  0  0  0  0  0  0  0  0  0  0  0
    5.8556   -0.9939    2.4410 O   0  5  0  0  0  0  0  0  0  0  0  0
    8.6692    0.6590    4.5123 C   0  0  0  0  0  0  0  0  0  0  0  0
    9.9854    1.0503    4.3018 C   0  0  0  0  0  0  0  0  0  0  0  0
   10.5860    0.8583    3.0499 C   0  0  0  0  0  0  0  0  0  0  0  0
   11.8602    1.2635    2.9290 F   0  0  0  0  0  0  0  0  0  0  0  0
   12.1047   -0.5135    0.8314 C   0  0  0  0  0  0  0  0  0  0  0  0
   13.2165   -0.1575    0.1010 C   0  0  0  0  0  0  0  0  0  0  0  0
   14.0809   -1.2882    0.1608 C   0  0  0  0  0  0  0  0  0  0  0  0
   13.4806   -2.2642    0.9616 C   0  0  0  0  0  0  0  0  0  0  0  0
   12.4581   -1.6038    1.5877 N   0  0  0  0  0  0  0  0  0  0  0  0
   13.6895   -3.6975    1.0464 C   0  0  0  0  0  0  0  0  0  0  0  0
   14.8247   -4.2489    0.2180 C   0  0  0  0  0  0  0  0  0  0  0  0
   16.1200   -3.8323    0.5623 C   0  0  0  0  0  0  0  0  0  0  0  0
   17.1951   -4.0916   -0.2929 C   0  0  0  0  0  0  0  0  0  0  0  0
   18.8156   -3.3591    0.0379 S   0  0  0  0  0  0  0  0  0  0  0  0
   19.6745   -4.5360    0.1356 O   0  0  0  0  0  0  0  0  0  0  0  0
   19.0239   -2.5279   -1.1459 O   0  0  0  0  0  0  0  0  0  0  0  0
   18.6246   -2.6230    1.2845 O   0  5  0  0  0  0  0  0  0  0  0  0
   17.0249   -4.8291   -1.4676 C   0  0  0  0  0  0  0  0  0  0  0  0
   15.7537   -5.2833   -1.8019 C   0  0  0  0  0  0  0  0  0  0  0  0
   14.6661   -4.9693   -0.9803 C   0  0  0  0  0  0  0  0  0  0  0  0
   13.4561   -5.3206   -1.4307 F   0  0  0  0  0  0  0  0  0  0  0  0
   12.8390   -4.5820    1.6431 C   0  0  0  0  0  0  0  0  0  0  0  0
   12.8136   -5.9115    1.2554 N   0  0  0  0  0  0  0  0  0  0  0  0
   11.5747   -6.2767    1.4288 C   0  0  0  0  0  0  0  0  0  0  0  0
   10.8529   -7.2037    0.5300 C   0  0  0  0  0  0  0  0  0  0  0  0
   10.0964   -8.3629    1.0485 C   0  0  0  0  0  0  0  0  0  0  0  0
    8.7634   -8.5619    0.6449 C   0  0  0  0  0  0  0  0  0  0  0  0
    7.9119   -9.3840    1.3950 C   0  0  0  0  0  0  0  0  0  0  0  0
    6.1615   -9.5354    0.9436 S   0  0  0  0  0  0  0  0  0  0  0  0
    5.9140  -10.9641    1.1239 O   0  0  0  0  0  0  0  0  0  0  0  0
    5.5263   -8.6589    1.9207 O   0  0  0  0  0  0  0  0  0  0  0  0
    6.1279   -9.0754   -0.4420 O   0  5  0  0  0  0  0  0  0  0  0  0
    8.3694  -10.0517    2.5324 C   0  0  0  0  0  0  0  0  0  0  0  0
    9.7013   -9.9081    2.9101 C   0  0  0  0  0  0  0  0  0  0  0  0
   10.5486   -9.0741    2.1728 C   0  0  0  0  0  0  0  0  0  0  0  0
   11.8032   -8.9124    2.6208 F   0  0  0  0  0  0  0  0  0  0  0  0
   10.6910   -6.5784   -0.6595 C   0  0  0  0  0  0  0  0  0  0  0  0
   10.3616   -7.1335   -1.9590 C   0  0  0  0  0  0  0  0  0  0  0  0
   10.3063   -6.1230   -2.8550 C   0  0  0  0  0  0  0  0  0  0  0  0
   10.4198   -4.8391   -2.1509 C   0  0  0  0  0  0  0  0  0  0  0  0
   10.7668   -5.2128   -0.8917 N   0  0  0  0  0  0  0  0  0  0  0  0
   10.7949   -5.4353    2.3237 C   0  0  0  0  0  0  0  0  0  0  0  0
   11.6247   -4.3946    2.4307 C   0  0  0  0  0  0  0  0  0  0  0  0
    8.7634   -0.8714   -0.7749 C   0  0  0  0  0  0  0  0  0  0  0  0
    8.5611   -1.9544   -1.5271 C   0  0  0  0  0  0  0  0  0  0  0  0
    8.6503   -4.0458   -4.5117 C   0  0  0  0  0  0  0  0  0  0  0  0
    8.2743   -3.8326   -5.8164 C   0  0  0  0  0  0  0  0  0  0  0  0
    0.5421   -3.8854   -4.8294 N   0  0  0  0  0  0  0  0  0  0  0  0
    0.6292   -5.2874   -5.2581 C   0  0  0  0  0  0  0  0  0  0  0  0
    1.9187   -6.0253   -4.7893 C   0  0  0  0  0  0  0  0  0  0  0  0
    2.0845   -6.1106   -3.2667 C   0  0  0  0  0  0  0  0  0  0  0  0
    1.9272   -7.4675   -5.3169 C   0  0  0  0  0  0  0  0  0  0  0  0
    0.0823   -3.7608   -3.4950 C   0  0  0  0  0  0  0  0  0  0  0  0
   -0.4935   -4.6342   -2.8732 O   0  0  0  0  0  0  0  0  0  0  0  0
    0.3406   -2.4773   -2.9408 C   0  0  0  0  0  0  0  0  0  0  0  0
    0.3181   -2.0782   -1.6330 N   0  0  0  0  0  0  0  0  0  0  0  0
    1.1568    0.9661   -0.4470 H   0  0  0  0  0  0  0  0  0  0  0  0
    1.6214   -0.5406    0.3060 H   0  0  0  0  0  0  0  0  0  0  0  0
   -0.0591   -0.0636    0.2702 H   0  0  0  0  0  0  0  0  0  0  0  0
    1.1531    0.6510   -3.1601 H   0  0  0  0  0  0  0  0  0  0  0  0
    1.1153   -3.6997   -9.3130 H   0  0  0  0  0  0  0  0  0  0  0  0
    0.3842   -4.6593   -7.9730 H   0  0  0  0  0  0  0  0  0  0  0  0
    4.3849   -4.6873   -7.6448 H   0  0  0  0  0  0  0  0  0  0  0  0
    3.1781   -2.4738   -9.1204 H   0  0  0  0  0  0  0  0  0  0  0  0
    4.8095   -3.1250   -9.4073 H   0  0  0  0  0  0  0  0  0  0  0  0
    3.9493   -1.8019   -6.8796 H   0  0  0  0  0  0  0  0  0  0  0  0
    4.8227   -1.0151   -8.2074 H   0  0  0  0  0  0  0  0  0  0  0  0
    5.8396   -3.3679   -6.6837 H   0  0  0  0  0  0  0  0  0  0  0  0
    6.2730   -1.6789   -6.3734 H   0  0  0  0  0  0  0  0  0  0  0  0
    6.7301   -2.4647   -9.0538 H   0  0  0  0  0  0  0  0  0  0  0  0
   10.4888   -1.4374   -6.6411 H   0  0  0  0  0  0  0  0  0  0  0  0
   11.2700   -1.9385   -4.3893 H   0  0  0  0  0  0  0  0  0  0  0  0
    8.0675   -0.6595    1.4890 H   0  0  0  0  0  0  0  0  0  0  0  0
    8.2188    0.7971    5.4305 H   0  0  0  0  0  0  0  0  0  0  0  0
   10.5225    1.4835    5.0692 H   0  0  0  0  0  0  0  0  0  0  0  0
   13.3869    0.7366   -0.3854 H   0  0  0  0  0  0  0  0  0  0  0  0
   14.9963   -1.3726   -0.3082 H   0  0  0  0  0  0  0  0  0  0  0  0
   12.0437   -1.8675    2.4409 H   0  0  0  0  0  0  0  0  0  0  0  0
   16.2795   -3.3323    1.4509 H   0  0  0  0  0  0  0  0  0  0  0  0
   17.8311   -5.0338   -2.0784 H   0  0  0  0  0  0  0  0  0  0  0  0
   15.6133   -5.8499   -2.6530 H   0  0  0  0  0  0  0  0  0  0  0  0
    8.4109   -8.1000   -0.2080 H   0  0  0  0  0  0  0  0  0  0  0  0
    7.7294  -10.6432    3.0851 H   0  0  0  0  0  0  0  0  0  0  0  0
   10.0631  -10.4159    3.7325 H   0  0  0  0  0  0  0  0  0  0  0  0
   10.1973   -8.1314   -2.1645 H   0  0  0  0  0  0  0  0  0  0  0  0
   10.2007   -6.2361   -3.8753 H   0  0  0  0  0  0  0  0  0  0  0  0
   11.0483   -4.5689   -0.2022 H   0  0  0  0  0  0  0  0  0  0  0  0
    9.8696   -5.5961    2.7514 H   0  0  0  0  0  0  0  0  0  0  0  0
   11.4305   -3.5575    3.0022 H   0  0  0  0  0  0  0  0  0  0  0  0
    8.0381   -0.1775   -0.5353 H   0  0  0  0  0  0  0  0  0  0  0  0
    7.6750   -2.3424   -1.8867 H   0  0  0  0  0  0  0  0  0  0  0  0
    8.1178   -4.6978   -3.9147 H   0  0  0  0  0  0  0  0  0  0  0  0
    7.5293   -4.4079   -6.2396 H   0  0  0  0  0  0  0  0  0  0  0  0
    0.5992   -5.3128   -6.3274 H   0  0  0  0  0  0  0  0  0  0  0  0
   -0.1956   -5.7968   -4.8052 H   0  0  0  0  0  0  0  0  0  0  0  0
    2.7229   -5.4384   -5.1814 H   0  0  0  0  0  0  0  0  0  0  0  0
    1.2888   -6.6945   -2.8534 H   0  0  0  0  0  0  0  0  0  0  0  0
    2.0582   -5.1257   -2.8493 H   0  0  0  0  0  0  0  0  0  0  0  0
    3.0222   -6.5711   -3.0353 H   0  0  0  0  0  0  0  0  0  0  0  0
    1.1053   -8.0067   -4.8943 H   0  0  0  0  0  0  0  0  0  0  0  0
    2.8452   -7.9428   -5.0409 H   0  0  0  0  0  0  0  0  0  0  0  0
    1.8370   -7.4578   -6.3830 H   0  0  0  0  0  0  0  0  0  0  0  0
    0.0745   -2.6440   -0.8651 H   0  0  0  0  0  0  0  0  0  0  0  0
  1  2  1  0  0  0  0
  1 90  1  0  0  0  0
  1 91  1  0  0  0  0
  1 92  1  0  0  0  0
  2  3  2  0  0  0  0
  2 89  1  0  0  0  0
  3  4  1  0  0  0  0
  3 93  1  0  0  0  0
  4  5  1  0  0  0  0
  4 88  2  0  0  0  0
  5  6  2  0  0  0  0
  6  7  1  0  0  0  0
  6 81  1  0  0  0  0
  7  8  1  0  0  0  0
  8  9  1  0  0  0  0
  8 94  1  0  0  0  0
  8 95  1  0  0  0  0
  9 10  2  0  0  0  0
  9 11  1  0  0  0  0
 11 12  1  0  0  0  0
 11 96  1  0  0  0  0
 12 13  1  0  0  0  0
 12 97  1  0  0  0  0
 12 98  1  0  0  0  0
 13 14  1  0  0  0  0
 13 99  1  0  0  0  0
 13100  1  0  0  0  0
 14 15  1  0  0  0  0
 14101  1  0  0  0  0
 14102  1  0  0  0  0
 15 16  1  0  0  0  0
 15103  1  0  0  0  0
 16 17  2  0  0  0  0
 16 18  1  0  0  0  0
 18 19  1  0  0  0  0
 18 80  2  0  0  0  0
 19 20  2  0  0  0  0
 19104  1  0  0  0  0
 20 21  1  0  0  0  0
 20105  1  0  0  0  0
 21 22  1  0  0  0  0
 21 79  2  0  0  0  0
 22 23  1  0  0  0  0
 22 73  2  0  0  0  0
 23 24  2  0  0  0  0
 23 78  1  0  0  0  0
 24 25  1  0  0  0  0
 25 26  2  0  0  0  0
 25 77  1  0  0  0  0
 26 27  1  0  0  0  0
 26 38  1  0  0  0  0
 27 28  1  0  0  0  0
 27 36  2  0  0  0  0
 28 29  2  0  0  0  0
 28106  1  0  0  0  0
 29 30  1  0  0  0  0
 29 34  1  0  0  0  0
 30 31  2  0  0  0  0
 30 32  2  0  0  0  0
 30 33  1  0  0  0  0
 34 35  2  0  0  0  0
 34107  1  0  0  0  0
 35 36  1  0  0  0  0
 35108  1  0  0  0  0
 36 37  1  0  0  0  0
 38 39  2  0  0  0  0
 38 42  1  0  0  0  0
 39 40  1  0  0  0  0
 39109  1  0  0  0  0
 40 41  2  0  0  0  0
 40110  1  0  0  0  0
 41 42  1  0  0  0  0
 41 43  1  0  0  0  0
 42111  1  0  0  0  0
 43 44  1  0  0  0  0
 43 55  2  0  0  0  0
 44 45  1  0  0  0  0
 44 53  2  0  0  0  0
 45 46  2  0  0  0  0
 45112  1  0  0  0  0
 46 47  1  0  0  0  0
 46 51  1  0  0  0  0
 47 48  2  0  0  0  0
 47 49  2  0  0  0  0
 47 50  1  0  0  0  0
 51 52  2  0  0  0  0
 51113  1  0  0  0  0
 52 53  1  0  0  0  0
 52114  1  0  0  0  0
 53 54  1  0  0  0  0
 55 56  1  0  0  0  0
 55 76  1  0  0  0  0
 56 57  2  0  0  0  0
 57 58  1  0  0  0  0
 57 75  1  0  0  0  0
 58 59  1  0  0  0  0
 58 70  2  0  0  0  0
 59 60  1  0  0  0  0
 59 68  2  0  0  0  0
 60 61  2  0  0  0  0
 60115  1  0  0  0  0
 61 62  1  0  0  0  0
 61 66  1  0  0  0  0
 62 63  2  0  0  0  0
 62 64  2  0  0  0  0
 62 65  1  0  0  0  0
 66 67  2  0  0  0  0
 66116  1  0  0  0  0
 67 68  1  0  0  0  0
 67117  1  0  0  0  0
 68 69  1  0  0  0  0
 70 71  1  0  0  0  0
 70 74  1  0  0  0  0
 71 72  2  0  0  0  0
 71118  1  0  0  0  0
 72 73  1  0  0  0  0
 72119  1  0  0  0  0
 73 74  1  0  0  0  0
 74120  1  0  0  0  0
 75 76  2  0  0  0  0
 75121  1  0  0  0  0
 76122  1  0  0  0  0
 77 78  2  0  0  0  0
 77123  1  0  0  0  0
 78124  1  0  0  0  0
 79 80  1  0  0  0  0
 79125  1  0  0  0  0
 80126  1  0  0  0  0
 81 82  1  0  0  0  0
 81 86  1  0  0  0  0
 82 83  1  0  0  0  0
 82127  1  0  0  0  0
 82128  1  0  0  0  0
 83 84  1  0  0  0  0
 83 85  1  0  0  0  0
 83129  1  0  0  0  0
 84130  1  0  0  0  0
 84131  1  0  0  0  0
 84132  1  0  0  0  0
 85133  1  0  0  0  0
 85134  1  0  0  0  0
 85135  1  0  0  0  0
 86 87  2  0  0  0  0
 86 88  1  0  0  0  0
 88 89  1  0  0  0  0
 89136  1  0  0  0  0
M  CHG  3  33  -1  50  -1  65  -1
M  END
$$$$
