5_2_2399
 OpenBabel04152301373D

134143  0  0  1  0  0  0  0  0999 V2000
    1.4423   -0.2677   -0.4046 C   0  0  0  0  0  0  0  0  0  0  0  0
    0.8826    0.9862    0.2352 C   0  0  0  0  0  0  0  0  0  0  0  0
    1.0697    2.3131   -0.5346 C   0  0  1  0  0  0  0  0  0  0  0  0
    0.5884    2.2776   -1.9378 N   0  0  0  0  0  0  0  0  0  0  0  0
    1.2838    3.3022   -3.1048 S   0  0  0  0  0  0  0  0  0  0  0  0
    2.7067    3.2793   -2.8654 O   0  0  0  0  0  0  0  0  0  0  0  0
    0.7299    2.8276   -4.3605 O   0  0  0  0  0  0  0  0  0  0  0  0
    0.6441    4.9432   -2.8555 C   0  0  0  0  0  0  0  0  0  0  0  0
   -0.6152    5.0681   -2.2745 C   0  0  0  0  0  0  0  0  0  0  0  0
   -1.0958    6.3018   -1.8293 C   0  0  0  0  0  0  0  0  0  0  0  0
   -2.3681    6.3560   -1.0490 C   0  0  0  0  0  0  0  0  0  0  0  0
   -0.3121    7.4388   -2.0093 C   0  0  0  0  0  0  0  0  0  0  0  0
    0.8900    7.3435   -2.7105 C   0  0  0  0  0  0  0  0  0  0  0  0
    1.3692    6.1018   -3.1749 C   0  0  0  0  0  0  0  0  0  0  0  0
    2.6016    6.1183   -4.0291 C   0  0  0  0  0  0  0  0  0  0  0  0
    0.3100    3.3691    0.2740 C   0  0  0  0  0  0  0  0  0  0  0  0
    0.9160    4.2502    0.8832 O   0  0  0  0  0  0  0  0  0  0  0  0
   -1.0601    3.3013    0.4065 N   0  0  0  0  0  0  0  0  0  0  0  0
   -2.0325    2.4875   -0.3228 C   0  0  0  0  0  0  0  0  0  0  0  0
   -2.9996    1.6946    0.5540 C   0  0  0  0  0  0  0  0  0  0  0  0
   -4.0969    2.5525    1.1644 C   0  0  0  0  0  0  0  0  0  0  0  0
   -4.9876    3.1797    0.1664 N   0  0  0  0  0  0  0  0  0  0  0  0
   -5.7433    4.3482    0.1828 C   0  0  0  0  0  0  0  0  0  0  0  0
   -6.6296    4.5009   -0.6534 O   0  0  0  0  0  0  0  0  0  0  0  0
   -5.4758    5.4097    1.1763 C   0  0  0  0  0  0  0  0  0  0  0  0
   -6.1059    6.6614    1.2325 C   0  0  0  0  0  0  0  0  0  0  0  0
   -5.4651    7.6963    1.9517 C   0  0  0  0  0  0  0  0  0  0  0  0
   -4.3609    7.3614    2.7314 C   0  0  0  0  0  0  0  0  0  0  0  0
   -3.4420    8.1985    3.4845 C   0  0  0  0  0  0  0  0  0  0  0  0
   -3.7955    8.2980    4.9161 C   0  0  0  0  0  0  0  0  0  0  0  0
   -4.4613    9.2633    5.4551 N   0  0  0  0  0  0  0  0  0  0  0  0
   -4.5679    8.9092    6.7876 C   0  0  0  0  0  0  0  0  0  0  0  0
   -4.3992    9.8255    7.7795 C   0  0  0  0  0  0  0  0  0  0  0  0
   -3.9590    9.5117    9.1921 C   0  0  0  0  0  0  0  0  0  0  0  0
   -3.9301   10.5886   10.0942 C   0  0  0  0  0  0  0  0  0  0  0  0
   -3.2994   10.4720   11.3437 C   0  0  0  0  0  0  0  0  0  0  0  0
   -3.0704   11.9707   12.3273 S   0  0  0  0  0  0  0  0  0  0  0  0
   -2.4338   12.8624   11.3640 O   0  0  0  0  0  0  0  0  0  0  0  0
   -4.4433   12.2952   12.6992 O   0  0  0  0  0  0  0  0  0  0  0  0
   -2.2144   11.5252   13.4242 O   0  5  0  0  0  0  0  0  0  0  0  0
   -2.7493    9.2697   11.7760 C   0  0  0  0  0  0  0  0  0  0  0  0
   -2.8231    8.1750   10.9385 C   0  0  0  0  0  0  0  0  0  0  0  0
   -3.3881    8.3063    9.6676 C   0  0  0  0  0  0  0  0  0  0  0  0
   -3.2548    7.2068    8.9202 F   0  0  0  0  0  0  0  0  0  0  0  0
   -4.3137   11.1628    7.2177 C   0  0  0  0  0  0  0  0  0  0  0  0
   -5.1490   11.9342    6.4311 C   0  0  0  0  0  0  0  0  0  0  0  0
   -4.2880   12.5692    5.4849 C   0  0  0  0  0  0  0  0  0  0  0  0
   -2.9656   12.2362    5.7907 C   0  0  0  0  0  0  0  0  0  0  0  0
   -3.0541   11.7072    7.0592 N   0  0  0  0  0  0  0  0  0  0  0  0
   -1.7406   12.3127    5.0041 C   0  0  0  0  0  0  0  0  0  0  0  0
   -1.8356   13.0091    3.6504 C   0  0  0  0  0  0  0  0  0  0  0  0
   -1.7509   12.3576    2.3949 C   0  0  0  0  0  0  0  0  0  0  0  0
   -1.9900   13.0719    1.2011 C   0  0  0  0  0  0  0  0  0  0  0  0
   -1.8799   12.2426   -0.4227 S   0  0  0  0  0  0  0  0  0  0  0  0
   -0.5688   11.6047   -0.3967 O   0  0  0  0  0  0  0  0  0  0  0  0
   -3.0258   11.3365   -0.4002 O   0  0  0  0  0  0  0  0  0  0  0  0
   -1.9998   13.3462   -1.3781 O   0  5  0  0  0  0  0  0  0  0  0  0
   -2.3274   14.4280    1.2362 C   0  0  0  0  0  0  0  0  0  0  0  0
   -2.4149   15.0764    2.4634 C   0  0  0  0  0  0  0  0  0  0  0  0
   -2.1621   14.3755    3.6440 C   0  0  0  0  0  0  0  0  0  0  0  0
   -2.2862   15.0488    4.7998 F   0  0  0  0  0  0  0  0  0  0  0  0
   -0.5751   11.6636    5.3084 C   0  0  0  0  0  0  0  0  0  0  0  0
    0.4051   11.4521    4.3488 N   0  0  0  0  0  0  0  0  0  0  0  0
    0.9791   10.3289    4.6929 C   0  0  0  0  0  0  0  0  0  0  0  0
    1.3092    9.2634    3.7117 C   0  0  0  0  0  0  0  0  0  0  0  0
    2.6357    8.5856    3.6205 C   0  0  0  0  0  0  0  0  0  0  0  0
    3.8744    9.2429    3.8036 C   0  0  0  0  0  0  0  0  0  0  0  0
    5.0722    8.4930    3.9396 C   0  0  0  0  0  0  0  0  0  0  0  0
    6.6682    9.3261    4.2522 S   0  0  0  0  0  0  0  0  0  0  0  0
    6.9017   10.0385    3.0015 O   0  0  0  0  0  0  0  0  0  0  0  0
    6.3704   10.1484    5.4198 O   0  0  0  0  0  0  0  0  0  0  0  0
    7.5918    8.2192    4.5083 O   0  5  0  0  0  0  0  0  0  0  0  0
    5.0621    7.0967    3.9066 C   0  0  0  0  0  0  0  0  0  0  0  0
    3.8563    6.4392    3.7227 C   0  0  0  0  0  0  0  0  0  0  0  0
    2.6734    7.1731    3.5893 C   0  0  0  0  0  0  0  0  0  0  0  0
    1.5391    6.4576    3.5272 F   0  0  0  0  0  0  0  0  0  0  0  0
    0.1145    8.8455    3.2074 C   0  0  0  0  0  0  0  0  0  0  0  0
   -0.1876    8.2590    1.9135 C   0  0  0  0  0  0  0  0  0  0  0  0
   -1.5333    8.1328    1.8137 C   0  0  0  0  0  0  0  0  0  0  0  0
   -2.1747    8.4438    3.0841 C   0  0  0  0  0  0  0  0  0  0  0  0
   -1.1419    8.9611    3.8025 N   0  0  0  0  0  0  0  0  0  0  0  0
    0.7873    9.9458    6.0844 C   0  0  0  0  0  0  0  0  0  0  0  0
   -0.2138   10.7719    6.4116 C   0  0  0  0  0  0  0  0  0  0  0  0
   -4.4270    7.4837    6.8126 C   0  0  0  0  0  0  0  0  0  0  0  0
   -3.6604    7.1107    5.7868 C   0  0  0  0  0  0  0  0  0  0  0  0
   -4.1973    6.0311    3.0277 C   0  0  0  0  0  0  0  0  0  0  0  0
   -4.3365    5.2679    1.9275 C   0  0  0  0  0  0  0  0  0  0  0  0
    1.2461   -1.1086    0.2273 H   0  0  0  0  0  0  0  0  0  0  0  0
    2.4986   -0.1596   -0.5368 H   0  0  0  0  0  0  0  0  0  0  0  0
    0.9775   -0.4205   -1.3562 H   0  0  0  0  0  0  0  0  0  0  0  0
    1.3527    1.0983    1.1898 H   0  0  0  0  0  0  0  0  0  0  0  0
   -0.1757    0.8318    0.2674 H   0  0  0  0  0  0  0  0  0  0  0  0
    2.1142    2.5274   -0.6238 H   0  0  0  0  0  0  0  0  0  0  0  0
   -0.4079    2.4945   -1.9124 H   0  0  0  0  0  0  0  0  0  0  0  0
   -1.2074    4.2294   -2.1704 H   0  0  0  0  0  0  0  0  0  0  0  0
   -2.8158    5.3844   -1.0289 H   0  0  0  0  0  0  0  0  0  0  0  0
   -3.0402    7.0490   -1.5104 H   0  0  0  0  0  0  0  0  0  0  0  0
   -2.1597    6.6735   -0.0487 H   0  0  0  0  0  0  0  0  0  0  0  0
   -0.6189    8.3466   -1.6262 H   0  0  0  0  0  0  0  0  0  0  0  0
    1.4389    8.1982   -2.8927 H   0  0  0  0  0  0  0  0  0  0  0  0
    2.8540    5.1173   -4.3105 H   0  0  0  0  0  0  0  0  0  0  0  0
    3.4116    6.5489   -3.4783 H   0  0  0  0  0  0  0  0  0  0  0  0
    2.4186    6.7004   -4.9080 H   0  0  0  0  0  0  0  0  0  0  0  0
   -1.4424    3.8900    1.0968 H   0  0  0  0  0  0  0  0  0  0  0  0
   -1.4930    1.7936   -0.9330 H   0  0  0  0  0  0  0  0  0  0  0  0
   -2.6324    3.1720   -0.8853 H   0  0  0  0  0  0  0  0  0  0  0  0
   -2.4440    1.2387    1.3467 H   0  0  0  0  0  0  0  0  0  0  0  0
   -3.4751    0.9694   -0.0729 H   0  0  0  0  0  0  0  0  0  0  0  0
   -3.6375    3.3279    1.7412 H   0  0  0  0  0  0  0  0  0  0  0  0
   -4.7043    1.9040    1.7606 H   0  0  0  0  0  0  0  0  0  0  0  0
   -5.0608    2.6721   -0.6740 H   0  0  0  0  0  0  0  0  0  0  0  0
   -7.0106    6.8223    0.7627 H   0  0  0  0  0  0  0  0  0  0  0  0
   -5.8050    8.6694    1.9005 H   0  0  0  0  0  0  0  0  0  0  0  0
   -4.3799   11.4803    9.8343 H   0  0  0  0  0  0  0  0  0  0  0  0
   -2.2968    9.1979   12.7007 H   0  0  0  0  0  0  0  0  0  0  0  0
   -2.4612    7.2604   11.2509 H   0  0  0  0  0  0  0  0  0  0  0  0
   -6.1734   12.0304    6.5105 H   0  0  0  0  0  0  0  0  0  0  0  0
   -4.5918   13.1733    4.7053 H   0  0  0  0  0  0  0  0  0  0  0  0
   -2.3408   11.7156    7.7377 H   0  0  0  0  0  0  0  0  0  0  0  0
   -1.5128   11.3543    2.3530 H   0  0  0  0  0  0  0  0  0  0  0  0
   -2.5097   14.9427    0.3605 H   0  0  0  0  0  0  0  0  0  0  0  0
   -2.6669   16.0764    2.5014 H   0  0  0  0  0  0  0  0  0  0  0  0
    3.9078   10.2738    3.8386 H   0  0  0  0  0  0  0  0  0  0  0  0
    5.9386    6.5633    4.0174 H   0  0  0  0  0  0  0  0  0  0  0  0
    3.8312    5.4082    3.6842 H   0  0  0  0  0  0  0  0  0  0  0  0
    0.5018    7.9861    1.1957 H   0  0  0  0  0  0  0  0  0  0  0  0
   -2.0347    7.8546    0.9557 H   0  0  0  0  0  0  0  0  0  0  0  0
   -1.2719    9.3870    4.6805 H   0  0  0  0  0  0  0  0  0  0  0  0
    1.2808    9.2408    6.6540 H   0  0  0  0  0  0  0  0  0  0  0  0
   -0.6768   10.7793    7.3339 H   0  0  0  0  0  0  0  0  0  0  0  0
   -4.8490    6.8500    7.5093 H   0  0  0  0  0  0  0  0  0  0  0  0
   -3.1250    6.2404    5.6420 H   0  0  0  0  0  0  0  0  0  0  0  0
   -3.9942    5.6640    3.9706 H   0  0  0  0  0  0  0  0  0  0  0  0
   -3.6045    4.5930    1.6559 H   0  0  0  0  0  0  0  0  0  0  0  0
  1  2  1  0  0  0  0
  1 88  1  0  0  0  0
  1 89  1  0  0  0  0
  1 90  1  0  0  0  0
  2  3  1  0  0  0  0
  2 91  1  0  0  0  0
  2 92  1  0  0  0  0
  3  4  1  0  0  0  0
  3 16  1  0  0  0  0
  3 93  1  6  0  0  0
  4  5  1  0  0  0  0
  4 94  1  0  0  0  0
  5  6  2  0  0  0  0
  5  7  2  0  0  0  0
  5  8  1  0  0  0  0
  8  9  1  0  0  0  0
  8 14  2  0  0  0  0
  9 10  2  0  0  0  0
  9 95  1  0  0  0  0
 10 11  1  0  0  0  0
 10 12  1  0  0  0  0
 11 96  1  0  0  0  0
 11 97  1  0  0  0  0
 11 98  1  0  0  0  0
 12 13  2  0  0  0  0
 12 99  1  0  0  0  0
 13 14  1  0  0  0  0
 13100  1  0  0  0  0
 14 15  1  0  0  0  0
 15101  1  0  0  0  0
 15102  1  0  0  0  0
 15103  1  0  0  0  0
 16 17  2  0  0  0  0
 16 18  1  0  0  0  0
 18 19  1  0  0  0  0
 18104  1  0  0  0  0
 19 20  1  0  0  0  0
 19105  1  0  0  0  0
 19106  1  0  0  0  0
 20 21  1  0  0  0  0
 20107  1  0  0  0  0
 20108  1  0  0  0  0
 21 22  1  0  0  0  0
 21109  1  0  0  0  0
 21110  1  0  0  0  0
 22 23  1  0  0  0  0
 22111  1  0  0  0  0
 23 24  2  0  0  0  0
 23 25  1  0  0  0  0
 25 26  1  0  0  0  0
 25 87  2  0  0  0  0
 26 27  2  0  0  0  0
 26112  1  0  0  0  0
 27 28  1  0  0  0  0
 27113  1  0  0  0  0
 28 29  1  0  0  0  0
 28 86  2  0  0  0  0
 29 30  1  0  0  0  0
 29 80  2  0  0  0  0
 30 31  2  0  0  0  0
 30 85  1  0  0  0  0
 31 32  1  0  0  0  0
 32 33  2  0  0  0  0
 32 84  1  0  0  0  0
 33 34  1  0  0  0  0
 33 45  1  0  0  0  0
 34 35  1  0  0  0  0
 34 43  2  0  0  0  0
 35 36  2  0  0  0  0
 35114  1  0  0  0  0
 36 37  1  0  0  0  0
 36 41  1  0  0  0  0
 37 38  2  0  0  0  0
 37 39  2  0  0  0  0
 37 40  1  0  0  0  0
 41 42  2  0  0  0  0
 41115  1  0  0  0  0
 42 43  1  0  0  0  0
 42116  1  0  0  0  0
 43 44  1  0  0  0  0
 45 46  2  0  0  0  0
 45 49  1  0  0  0  0
 46 47  1  0  0  0  0
 46117  1  0  0  0  0
 47 48  2  0  0  0  0
 47118  1  0  0  0  0
 48 49  1  0  0  0  0
 48 50  1  0  0  0  0
 49119  1  0  0  0  0
 50 51  1  0  0  0  0
 50 62  2  0  0  0  0
 51 52  1  0  0  0  0
 51 60  2  0  0  0  0
 52 53  2  0  0  0  0
 52120  1  0  0  0  0
 53 54  1  0  0  0  0
 53 58  1  0  0  0  0
 54 55  2  0  0  0  0
 54 56  2  0  0  0  0
 54 57  1  0  0  0  0
 58 59  2  0  0  0  0
 58121  1  0  0  0  0
 59 60  1  0  0  0  0
 59122  1  0  0  0  0
 60 61  1  0  0  0  0
 62 63  1  0  0  0  0
 62 83  1  0  0  0  0
 63 64  2  0  0  0  0
 64 65  1  0  0  0  0
 64 82  1  0  0  0  0
 65 66  1  0  0  0  0
 65 77  2  0  0  0  0
 66 67  1  0  0  0  0
 66 75  2  0  0  0  0
 67 68  2  0  0  0  0
 67123  1  0  0  0  0
 68 69  1  0  0  0  0
 68 73  1  0  0  0  0
 69 70  2  0  0  0  0
 69 71  2  0  0  0  0
 69 72  1  0  0  0  0
 73 74  2  0  0  0  0
 73124  1  0  0  0  0
 74 75  1  0  0  0  0
 74125  1  0  0  0  0
 75 76  1  0  0  0  0
 77 78  1  0  0  0  0
 77 81  1  0  0  0  0
 78 79  2  0  0  0  0
 78126  1  0  0  0  0
 79 80  1  0  0  0  0
 79127  1  0  0  0  0
 80 81  1  0  0  0  0
 81128  1  0  0  0  0
 82 83  2  0  0  0  0
 82129  1  0  0  0  0
 83130  1  0  0  0  0
 84 85  2  0  0  0  0
 84131  1  0  0  0  0
 85132  1  0  0  0  0
 86 87  1  0  0  0  0
 86133  1  0  0  0  0
 87134  1  0  0  0  0
M  CHG  3  40  -1  57  -1  72  -1
M  END
$$$$
