5_2_7367
 OpenBabel04152301363D

154165  0  0  1  0  0  0  0  0999 V2000
    2.4551    7.3960   -4.6379 C   0  0  0  0  0  0  0  0  0  0  0  0
    3.8639    7.5125   -4.4624 O   0  0  0  0  0  0  0  0  0  0  0  0
    4.4724    6.8144   -3.4602 C   0  0  0  0  0  0  0  0  0  0  0  0
    5.8562    6.7040   -3.5848 C   0  0  0  0  0  0  0  0  0  0  0  0
    6.5956    5.9804   -2.6505 C   0  0  0  0  0  0  0  0  0  0  0  0
    5.9495    5.3400   -1.5921 C   0  0  0  0  0  0  0  0  0  0  0  0
    6.7496    4.6146   -0.7483 O   0  0  0  0  0  0  0  0  0  0  0  0
    6.8387    5.2159    0.5468 C   0  0  0  0  0  0  0  0  0  0  0  0
    4.5486    5.3785   -1.4733 C   0  0  0  0  0  0  0  0  0  0  0  0
    3.8208    4.5382   -0.4186 C   0  0  2  0  0  0  0  0  0  0  0  0
    2.5590    3.7442   -0.8561 C   0  0  0  0  0  0  0  0  0  0  0  0
    1.6851    3.3936   -0.0522 O   0  0  0  0  0  0  0  0  0  0  0  0
    2.3528    3.2353   -2.0922 N   0  0  0  0  0  0  0  0  0  0  0  0
    3.0374    3.4001   -3.3572 C   0  0  0  0  0  0  0  0  0  0  0  0
    2.5158    2.4549   -4.4229 C   0  0  0  0  0  0  0  0  0  0  0  0
    1.0048    2.5333   -4.6241 C   0  0  0  0  0  0  0  0  0  0  0  0
    0.5268    3.8357   -5.0813 N   0  0  0  0  0  0  0  0  0  0  0  0
    0.0483    4.2182   -6.3153 C   0  0  0  0  0  0  0  0  0  0  0  0
   -0.1762    5.4024   -6.5494 O   0  0  0  0  0  0  0  0  0  0  0  0
   -0.1396    3.1882   -7.3578 C   0  0  0  0  0  0  0  0  0  0  0  0
    0.3973    3.3833   -8.6307 C   0  0  0  0  0  0  0  0  0  0  0  0
    0.4311    2.3139   -9.5310 C   0  0  0  0  0  0  0  0  0  0  0  0
    0.0066    1.0357   -9.1311 C   0  0  0  0  0  0  0  0  0  0  0  0
    0.1561   -0.1668   -9.9981 C   0  0  0  0  0  0  0  0  0  0  0  0
   -1.0576   -1.0099  -10.3052 C   0  0  0  0  0  0  0  0  0  0  0  0
   -1.1284   -2.1906  -10.8622 N   0  0  0  0  0  0  0  0  0  0  0  0
   -2.4673   -2.5638  -10.7880 C   0  0  0  0  0  0  0  0  0  0  0  0
   -3.0678   -3.6709  -11.2878 C   0  0  0  0  0  0  0  0  0  0  0  0
   -4.5384   -3.8641  -11.0085 C   0  0  0  0  0  0  0  0  0  0  0  0
   -5.5116   -2.9731  -11.4923 C   0  0  0  0  0  0  0  0  0  0  0  0
   -6.8595   -3.1532  -11.1477 C   0  0  0  0  0  0  0  0  0  0  0  0
   -8.0445   -1.8495  -11.5757 S   0  0  0  0  0  0  0  0  0  0  0  0
   -7.5276   -0.7199  -10.8065 O   0  0  0  0  0  0  0  0  0  0  0  0
   -7.9014   -1.7540  -13.0237 O   0  0  0  0  0  0  0  0  0  0  0  0
   -9.3230   -2.3812  -11.1084 O   0  5  0  0  0  0  0  0  0  0  0  0
   -7.2766   -4.2651  -10.4127 C   0  0  0  0  0  0  0  0  0  0  0  0
   -6.3250   -5.1786   -9.9692 C   0  0  0  0  0  0  0  0  0  0  0  0
   -4.9731   -4.9597  -10.2411 C   0  0  0  0  0  0  0  0  0  0  0  0
   -4.0884   -5.8337   -9.7353 F   0  0  0  0  0  0  0  0  0  0  0  0
   -2.3753   -4.6674  -12.0635 C   0  0  0  0  0  0  0  0  0  0  0  0
   -2.9023   -5.7658  -12.7189 C   0  0  0  0  0  0  0  0  0  0  0  0
   -1.8469   -6.4744  -13.3011 C   0  0  0  0  0  0  0  0  0  0  0  0
   -0.6699   -5.7807  -13.0687 C   0  0  0  0  0  0  0  0  0  0  0  0
   -1.0071   -4.6807  -12.2977 N   0  0  0  0  0  0  0  0  0  0  0  0
    0.6612   -6.0968  -13.5249 C   0  0  0  0  0  0  0  0  0  0  0  0
    0.8364   -7.3050  -14.4084 C   0  0  0  0  0  0  0  0  0  0  0  0
    1.5507   -8.4362  -13.9797 C   0  0  0  0  0  0  0  0  0  0  0  0
    1.7341   -9.5165  -14.8547 C   0  0  0  0  0  0  0  0  0  0  0  0
    2.8120  -10.8798  -14.3383 S   0  0  0  0  0  0  0  0  0  0  0  0
    4.0780  -10.1932  -14.1030 O   0  0  0  0  0  0  0  0  0  0  0  0
    2.1305  -11.3843  -13.1506 O   0  0  0  0  0  0  0  0  0  0  0  0
    2.7996  -11.7815  -15.4888 O   0  5  0  0  0  0  0  0  0  0  0  0
    1.1552   -9.5239  -16.1269 C   0  0  0  0  0  0  0  0  0  0  0  0
    0.4127   -8.4224  -16.5428 C   0  0  0  0  0  0  0  0  0  0  0  0
    0.2780   -7.3204  -15.6988 C   0  0  0  0  0  0  0  0  0  0  0  0
   -0.4144   -6.2648  -16.1564 F   0  0  0  0  0  0  0  0  0  0  0  0
    1.7706   -5.3639  -13.2534 C   0  0  0  0  0  0  0  0  0  0  0  0
    1.8946   -4.1895  -12.5160 N   0  0  0  0  0  0  0  0  0  0  0  0
    3.1739   -3.8907  -12.5330 C   0  0  0  0  0  0  0  0  0  0  0  0
    3.8783   -2.7027  -11.9230 C   0  0  0  0  0  0  0  0  0  0  0  0
    5.3667   -2.5919  -11.9833 C   0  0  0  0  0  0  0  0  0  0  0  0
    6.0347   -2.4833  -13.2143 C   0  0  0  0  0  0  0  0  0  0  0  0
    7.4377   -2.5165  -13.2582 C   0  0  0  0  0  0  0  0  0  0  0  0
    8.2537   -2.5981  -14.8772 S   0  0  0  0  0  0  0  0  0  0  0  0
    7.6075   -3.7597  -15.4774 O   0  0  0  0  0  0  0  0  0  0  0  0
    7.9090   -1.3028  -15.4533 O   0  0  0  0  0  0  0  0  0  0  0  0
    9.6643   -2.7734  -14.5383 O   0  5  0  0  0  0  0  0  0  0  0  0
    8.1981   -2.5789  -12.0890 C   0  0  0  0  0  0  0  0  0  0  0  0
    7.5458   -2.6338  -10.8613 C   0  0  0  0  0  0  0  0  0  0  0  0
    6.1498   -2.6630  -10.8174 C   0  0  0  0  0  0  0  0  0  0  0  0
    5.5666   -2.7610   -9.6121 F   0  0  0  0  0  0  0  0  0  0  0  0
    3.1351   -1.7555  -11.3145 C   0  0  0  0  0  0  0  0  0  0  0  0
    3.6583   -0.5583  -10.6669 C   0  0  0  0  0  0  0  0  0  0  0  0
    2.6428    0.1180  -10.1055 C   0  0  0  0  0  0  0  0  0  0  0  0
    1.3809   -0.5684  -10.4000 C   0  0  0  0  0  0  0  0  0  0  0  0
    1.7727   -1.6669  -11.1268 N   0  0  0  0  0  0  0  0  0  0  0  0
    4.0076   -4.8608  -13.2548 C   0  0  0  0  0  0  0  0  0  0  0  0
    3.0989   -5.7066  -13.7159 C   0  0  0  0  0  0  0  0  0  0  0  0
   -3.1603   -1.5111  -10.0802 C   0  0  0  0  0  0  0  0  0  0  0  0
   -2.3600   -0.4785   -9.8683 C   0  0  0  0  0  0  0  0  0  0  0  0
   -0.5872    0.8870   -7.8683 C   0  0  0  0  0  0  0  0  0  0  0  0
   -0.7541    1.9806   -7.0320 C   0  0  0  0  0  0  0  0  0  0  0  0
    3.6146    5.3034    0.8392 N   0  3  1  0  0  0  0  0  0  0  0  0
    2.7984    6.5150    0.7731 C   0  0  0  0  0  0  0  0  0  0  0  0
    1.3508    6.3956    1.2786 C   0  0  0  0  0  0  0  0  0  0  0  0
    1.1906    5.7888    2.6030 N   0  3  2  0  0  0  0  0  0  0  0  0
    1.3610    6.7216    3.7234 C   0  0  0  0  0  0  0  0  0  0  0  0
    2.7622    7.1230    4.0774 C   0  0  0  0  0  0  0  0  0  0  0  0
    3.4225    8.1396    3.5474 N   0  0  0  0  0  0  0  0  0  0  0  0
    4.7002    8.0569    4.0262 C   0  0  0  0  0  0  0  0  0  0  0  0
    4.8062    7.0383    4.9383 C   0  0  0  0  0  0  0  0  0  0  0  0
    3.5508    6.4940    5.0148 N   0  0  0  0  0  0  0  0  0  0  0  0
    3.1943    5.4330    5.9234 C   0  0  0  0  0  0  0  0  0  0  0  0
    1.9363    4.5290    2.6760 C   0  0  0  0  0  0  0  0  0  0  0  0
    3.3618    4.5019    2.0462 C   0  0  0  0  0  0  0  0  0  0  0  0
    3.8385    6.1996   -2.3788 C   0  0  0  0  0  0  0  0  0  0  0  0
    2.1467    8.0051   -5.4618 H   0  0  0  0  0  0  0  0  0  0  0  0
    1.9568    7.7205   -3.7483 H   0  0  0  0  0  0  0  0  0  0  0  0
    2.2035    6.3749   -4.8354 H   0  0  0  0  0  0  0  0  0  0  0  0
    6.3372    7.1615   -4.3749 H   0  0  0  0  0  0  0  0  0  0  0  0
    7.6217    5.9182   -2.7415 H   0  0  0  0  0  0  0  0  0  0  0  0
    7.4700    4.6212    1.1734 H   0  0  0  0  0  0  0  0  0  0  0  0
    5.8621    5.2769    0.9797 H   0  0  0  0  0  0  0  0  0  0  0  0
    7.2506    6.1992    0.4559 H   0  0  0  0  0  0  0  0  0  0  0  0
    4.5096    3.7392   -0.2394 H   0  0  0  0  0  0  0  0  0  0  0  0
    1.5789    2.6288   -2.1419 H   0  0  0  0  0  0  0  0  0  0  0  0
    4.0804    3.2114   -3.2109 H   0  0  0  0  0  0  0  0  0  0  0  0
    2.8642    4.4006   -3.6946 H   0  0  0  0  0  0  0  0  0  0  0  0
    2.7677    1.4542   -4.1399 H   0  0  0  0  0  0  0  0  0  0  0  0
    2.9704    2.7436   -5.3475 H   0  0  0  0  0  0  0  0  0  0  0  0
    0.5304    2.3107   -3.6912 H   0  0  0  0  0  0  0  0  0  0  0  0
    0.7608    1.8299   -5.3926 H   0  0  0  0  0  0  0  0  0  0  0  0
    0.5502    4.5496   -4.4038 H   0  0  0  0  0  0  0  0  0  0  0  0
    0.7657    4.3074   -8.9050 H   0  0  0  0  0  0  0  0  0  0  0  0
    0.7696    2.4643  -10.4942 H   0  0  0  0  0  0  0  0  0  0  0  0
   -5.2348   -2.1868  -12.1007 H   0  0  0  0  0  0  0  0  0  0  0  0
   -8.2767   -4.4073  -10.2014 H   0  0  0  0  0  0  0  0  0  0  0  0
   -6.6177   -6.0154   -9.4409 H   0  0  0  0  0  0  0  0  0  0  0  0
   -3.9016   -6.0185  -12.7694 H   0  0  0  0  0  0  0  0  0  0  0  0
   -1.9304   -7.3643  -13.8171 H   0  0  0  0  0  0  0  0  0  0  0  0
   -0.3704   -4.0076  -11.9649 H   0  0  0  0  0  0  0  0  0  0  0  0
    1.9391   -8.4720  -13.0242 H   0  0  0  0  0  0  0  0  0  0  0  0
    1.2769  -10.3369  -16.7508 H   0  0  0  0  0  0  0  0  0  0  0  0
   -0.0363   -8.4212  -17.4720 H   0  0  0  0  0  0  0  0  0  0  0  0
    5.4938   -2.3790  -14.0870 H   0  0  0  0  0  0  0  0  0  0  0  0
    9.2291   -2.5842  -12.1347 H   0  0  0  0  0  0  0  0  0  0  0  0
    8.0916   -2.6529   -9.9857 H   0  0  0  0  0  0  0  0  0  0  0  0
    4.6506   -0.2758  -10.6437 H   0  0  0  0  0  0  0  0  0  0  0  0
    2.7360    0.9849   -9.5534 H   0  0  0  0  0  0  0  0  0  0  0  0
    1.1377   -2.3305  -11.4813 H   0  0  0  0  0  0  0  0  0  0  0  0
    5.0328   -4.8786  -13.3719 H   0  0  0  0  0  0  0  0  0  0  0  0
    3.3111   -6.5096  -14.3284 H   0  0  0  0  0  0  0  0  0  0  0  0
   -4.1467   -1.5584   -9.7804 H   0  0  0  0  0  0  0  0  0  0  0  0
   -2.5889    0.4557   -9.4943 H   0  0  0  0  0  0  0  0  0  0  0  0
   -0.9028   -0.0455   -7.5589 H   0  0  0  0  0  0  0  0  0  0  0  0
   -1.3273    1.9010   -6.1775 H   0  0  0  0  0  0  0  0  0  0  0  0
    4.5588    5.6725    0.9519 H   0  0  0  0  0  0  0  0  0  0  0  0
    2.7609    6.8263   -0.2499 H   0  0  0  0  0  0  0  0  0  0  0  0
    3.2721    7.2119    1.4326 H   0  0  0  0  0  0  0  0  0  0  0  0
    0.8047    5.8014    0.5760 H   0  0  0  0  0  0  0  0  0  0  0  0
    0.9892    7.3984    1.3704 H   0  0  0  0  0  0  0  0  0  0  0  0
    0.2101    5.5350    2.7239 H   0  0  0  0  0  0  0  0  0  0  0  0
    0.9287    6.2659    4.5896 H   0  0  0  0  0  0  0  0  0  0  0  0
    0.8891    7.6264    3.4017 H   0  0  0  0  0  0  0  0  0  0  0  0
    5.4763    8.6745    3.7412 H   0  0  0  0  0  0  0  0  0  0  0  0
    5.6496    6.7449    5.4556 H   0  0  0  0  0  0  0  0  0  0  0  0
    2.1621    5.1833    5.7927 H   0  0  0  0  0  0  0  0  0  0  0  0
    3.3585    5.7555    6.9303 H   0  0  0  0  0  0  0  0  0  0  0  0
    3.7977    4.5727    5.7215 H   0  0  0  0  0  0  0  0  0  0  0  0
    1.3525    3.7813    2.1811 H   0  0  0  0  0  0  0  0  0  0  0  0
    2.0958    4.3655    3.7213 H   0  0  0  0  0  0  0  0  0  0  0  0
    4.0448    4.8395    2.7975 H   0  0  0  0  0  0  0  0  0  0  0  0
    3.4820    3.4908    1.7173 H   0  0  0  0  0  0  0  0  0  0  0  0
    2.8271    6.3482   -2.2371 H   0  0  0  0  0  0  0  0  0  0  0  0
  1  2  1  0  0  0  0
  1 97  1  0  0  0  0
  1 98  1  0  0  0  0
  1 99  1  0  0  0  0
  2  3  1  0  0  0  0
  3  4  1  0  0  0  0
  3 96  2  0  0  0  0
  4  5  2  0  0  0  0
  4100  1  0  0  0  0
  5  6  1  0  0  0  0
  5101  1  0  0  0  0
  6  7  1  0  0  0  0
  6  9  2  0  0  0  0
  7  8  1  0  0  0  0
  8102  1  0  0  0  0
  8103  1  0  0  0  0
  8104  1  0  0  0  0
  9 96  1  0  0  0  0
 10 83  1  0  0  0  0
 10 11  1  0  0  0  0
 10  9  1  0  0  0  0
 10105  1  1  0  0  0
 11 12  2  0  0  0  0
 11 13  1  0  0  0  0
 13 14  1  0  0  0  0
 13106  1  0  0  0  0
 14 15  1  0  0  0  0
 14107  1  0  0  0  0
 14108  1  0  0  0  0
 15 16  1  0  0  0  0
 15109  1  0  0  0  0
 15110  1  0  0  0  0
 16 17  1  0  0  0  0
 16111  1  0  0  0  0
 16112  1  0  0  0  0
 17 18  1  0  0  0  0
 17113  1  0  0  0  0
 18 19  2  0  0  0  0
 18 20  1  0  0  0  0
 20 21  1  0  0  0  0
 20 82  2  0  0  0  0
 21 22  2  0  0  0  0
 21114  1  0  0  0  0
 22 23  1  0  0  0  0
 22115  1  0  0  0  0
 23 24  1  0  0  0  0
 23 81  2  0  0  0  0
 24 25  1  0  0  0  0
 24 75  2  0  0  0  0
 25 26  2  0  0  0  0
 25 80  1  0  0  0  0
 26 27  1  0  0  0  0
 27 28  2  0  0  0  0
 27 79  1  0  0  0  0
 28 29  1  0  0  0  0
 28 40  1  0  0  0  0
 29 30  1  0  0  0  0
 29 38  2  0  0  0  0
 30 31  2  0  0  0  0
 30116  1  0  0  0  0
 31 32  1  0  0  0  0
 31 36  1  0  0  0  0
 32 33  2  0  0  0  0
 32 34  2  0  0  0  0
 32 35  1  0  0  0  0
 36 37  2  0  0  0  0
 36117  1  0  0  0  0
 37 38  1  0  0  0  0
 37118  1  0  0  0  0
 38 39  1  0  0  0  0
 40 41  2  0  0  0  0
 40 44  1  0  0  0  0
 41 42  1  0  0  0  0
 41119  1  0  0  0  0
 42 43  2  0  0  0  0
 42120  1  0  0  0  0
 43 44  1  0  0  0  0
 43 45  1  0  0  0  0
 44121  1  0  0  0  0
 45 46  1  0  0  0  0
 45 57  2  0  0  0  0
 46 47  1  0  0  0  0
 46 55  2  0  0  0  0
 47 48  2  0  0  0  0
 47122  1  0  0  0  0
 48 49  1  0  0  0  0
 48 53  1  0  0  0  0
 49 50  2  0  0  0  0
 49 51  2  0  0  0  0
 49 52  1  0  0  0  0
 53 54  2  0  0  0  0
 53123  1  0  0  0  0
 54 55  1  0  0  0  0
 54124  1  0  0  0  0
 55 56  1  0  0  0  0
 57 58  1  0  0  0  0
 57 78  1  0  0  0  0
 58 59  2  0  0  0  0
 59 60  1  0  0  0  0
 59 77  1  0  0  0  0
 60 61  1  0  0  0  0
 60 72  2  0  0  0  0
 61 62  1  0  0  0  0
 61 70  2  0  0  0  0
 62 63  2  0  0  0  0
 62125  1  0  0  0  0
 63 64  1  0  0  0  0
 63 68  1  0  0  0  0
 64 65  2  0  0  0  0
 64 66  2  0  0  0  0
 64 67  1  0  0  0  0
 68 69  2  0  0  0  0
 68126  1  0  0  0  0
 69 70  1  0  0  0  0
 69127  1  0  0  0  0
 70 71  1  0  0  0  0
 72 73  1  0  0  0  0
 72 76  1  0  0  0  0
 73 74  2  0  0  0  0
 73128  1  0  0  0  0
 74 75  1  0  0  0  0
 74129  1  0  0  0  0
 75 76  1  0  0  0  0
 76130  1  0  0  0  0
 77 78  2  0  0  0  0
 77131  1  0  0  0  0
 78132  1  0  0  0  0
 79 80  2  0  0  0  0
 79133  1  0  0  0  0
 80134  1  0  0  0  0
 81 82  1  0  0  0  0
 81135  1  0  0  0  0
 82136  1  0  0  0  0
 83 84  1  0  0  0  0
 83 95  1  0  0  0  0
 83137  1  1  0  0  0
 84 85  1  0  0  0  0
 84138  1  0  0  0  0
 84139  1  0  0  0  0
 85 86  1  0  0  0  0
 85140  1  0  0  0  0
 85141  1  0  0  0  0
 86 87  1  0  0  0  0
 86 94  1  0  0  0  0
 86142  1  1  0  0  0
 87 88  1  0  0  0  0
 87143  1  0  0  0  0
 87144  1  0  0  0  0
 88 89  2  0  0  0  0
 88 92  1  0  0  0  0
 89 90  1  0  0  0  0
 90 91  2  0  0  0  0
 90145  1  0  0  0  0
 91 92  1  0  0  0  0
 91146  1  0  0  0  0
 92 93  1  0  0  0  0
 93147  1  0  0  0  0
 93148  1  0  0  0  0
 93149  1  0  0  0  0
 94 95  1  0  0  0  0
 94150  1  0  0  0  0
 94151  1  0  0  0  0
 95152  1  0  0  0  0
 95153  1  0  0  0  0
 96154  1  0  0  0  0
M  CHG  5  35  -1  52  -1  67  -1  83   1  86   1
M  END
$$$$
