5_2_4934
 OpenBabel04152301373D

137148  0  0  0  0  0  0  0  0999 V2000
    0.9509    0.1493   -0.0439 C   0  0  0  0  0  0  0  0  0  0  0  0
    0.5297    0.2482   -1.4272 N   0  0  0  0  0  0  0  0  0  0  0  0
    0.3149   -0.9575   -2.1044 C   0  0  0  0  0  0  0  0  0  0  0  0
    0.4827   -2.0624   -1.5943 O   0  0  0  0  0  0  0  0  0  0  0  0
   -0.1195   -0.7818   -3.4703 C   0  0  0  0  0  0  0  0  0  0  0  0
   -0.4534   -1.7194   -4.4449 C   0  0  0  0  0  0  0  0  0  0  0  0
   -0.4939   -3.1854   -4.3511 C   0  0  0  0  0  0  0  0  0  0  0  0
    0.2245   -3.9884   -5.2437 C   0  0  0  0  0  0  0  0  0  0  0  0
    0.1214   -5.3827   -5.1832 C   0  0  0  0  0  0  0  0  0  0  0  0
   -0.6963   -5.9811   -4.2257 C   0  0  0  0  0  0  0  0  0  0  0  0
   -0.8334   -7.6945   -4.1643 Cl  0  0  0  0  0  0  0  0  0  0  0  0
   -1.3968   -5.1996   -3.3145 C   0  0  0  0  0  0  0  0  0  0  0  0
   -1.2791   -3.8095   -3.3693 C   0  0  0  0  0  0  0  0  0  0  0  0
   -0.8543   -0.9827   -5.5583 N   0  0  0  0  0  0  0  0  0  0  0  0
   -1.3864   -1.4917   -6.8183 C   0  0  0  0  0  0  0  0  0  0  0  0
   -2.7638   -0.9545   -7.1540 C   0  0  0  0  0  0  0  0  0  0  0  0
   -2.9320   -0.1917   -8.1072 O   0  0  0  0  0  0  0  0  0  0  0  0
   -3.8530   -1.3550   -6.4321 N   0  0  0  0  0  0  0  0  0  0  0  0
   -3.8995   -2.2476   -5.2869 C   0  0  0  0  0  0  0  0  0  0  0  0
   -3.9365   -1.4960   -3.9533 C   0  0  0  0  0  0  0  0  0  0  0  0
   -5.3252   -0.9860   -3.6387 C   0  0  0  0  0  0  0  0  0  0  0  0
   -6.2560   -2.0714   -3.3065 N   0  0  0  0  0  0  0  0  0  0  0  0
   -7.5421   -1.9576   -2.8110 C   0  0  0  0  0  0  0  0  0  0  0  0
   -8.0827   -2.9114   -2.2536 O   0  0  0  0  0  0  0  0  0  0  0  0
   -8.2404   -0.6736   -2.9891 C   0  0  0  0  0  0  0  0  0  0  0  0
   -9.0649   -0.1102   -2.0136 C   0  0  0  0  0  0  0  0  0  0  0  0
   -9.5878    1.1624   -2.2466 C   0  0  0  0  0  0  0  0  0  0  0  0
   -9.1801    1.8737   -3.3895 C   0  0  0  0  0  0  0  0  0  0  0  0
   -9.5327    3.2637   -3.6351 C   0  0  0  0  0  0  0  0  0  0  0  0
   -9.1105    4.1596   -2.5317 C   0  0  0  0  0  0  0  0  0  0  0  0
   -9.8846    4.7125   -1.6624 N   0  0  0  0  0  0  0  0  0  0  0  0
   -9.0625    5.4860   -0.8565 C   0  0  0  0  0  0  0  0  0  0  0  0
   -9.5387    6.6245   -0.2825 C   0  0  0  0  0  0  0  0  0  0  0  0
   -8.7184    7.8515    0.0178 C   0  0  0  0  0  0  0  0  0  0  0  0
   -9.3501    8.8978    0.7154 C   0  0  0  0  0  0  0  0  0  0  0  0
   -8.7906   10.1859    0.7435 C   0  0  0  0  0  0  0  0  0  0  0  0
   -9.7593   11.5303    1.4722 S   0  0  0  0  0  0  0  0  0  0  0  0
  -10.9704   11.4997    0.6600 O   0  0  0  0  0  0  0  0  0  0  0  0
   -9.8994   11.0847    2.8548 O   0  0  0  0  0  0  0  0  0  0  0  0
   -8.9083   12.7026    1.2809 O   0  5  0  0  0  0  0  0  0  0  0  0
   -7.5652   10.4599    0.1419 C   0  0  0  0  0  0  0  0  0  0  0  0
   -6.8930    9.4304   -0.4937 C   0  0  0  0  0  0  0  0  0  0  0  0
   -7.4716    8.1614   -0.5700 C   0  0  0  0  0  0  0  0  0  0  0  0
   -6.7933    7.2912   -1.3273 F   0  0  0  0  0  0  0  0  0  0  0  0
  -10.9824    6.6753   -0.3707 C   0  0  0  0  0  0  0  0  0  0  0  0
  -12.0013    5.8638    0.0912 C   0  0  0  0  0  0  0  0  0  0  0  0
  -12.9181    5.7767   -0.9983 C   0  0  0  0  0  0  0  0  0  0  0  0
  -12.4793    6.6280   -2.0150 C   0  0  0  0  0  0  0  0  0  0  0  0
  -11.5296    7.4109   -1.4002 N   0  0  0  0  0  0  0  0  0  0  0  0
  -12.8363    6.7282   -3.4190 C   0  0  0  0  0  0  0  0  0  0  0  0
  -14.0538    5.9355   -3.8658 C   0  0  0  0  0  0  0  0  0  0  0  0
  -14.0282    4.7695   -4.6714 C   0  0  0  0  0  0  0  0  0  0  0  0
  -15.2117    4.0225   -4.8695 C   0  0  0  0  0  0  0  0  0  0  0  0
  -15.2133    2.5174   -5.9055 S   0  0  0  0  0  0  0  0  0  0  0  0
  -14.7166    2.9957   -7.1906 O   0  0  0  0  0  0  0  0  0  0  0  0
  -14.3271    1.6183   -5.1719 O   0  0  0  0  0  0  0  0  0  0  0  0
  -16.6194    2.1067   -5.9128 O   0  5  0  0  0  0  0  0  0  0  0  0
  -16.4115    4.4061   -4.2615 C   0  0  0  0  0  0  0  0  0  0  0  0
  -16.4417    5.5481   -3.4709 C   0  0  0  0  0  0  0  0  0  0  0  0
  -15.2830    6.3011   -3.2924 C   0  0  0  0  0  0  0  0  0  0  0  0
  -15.3635    7.3788   -2.4946 F   0  0  0  0  0  0  0  0  0  0  0  0
  -12.0741    7.3536   -4.3656 C   0  0  0  0  0  0  0  0  0  0  0  0
  -12.2710    7.1279   -5.7194 N   0  0  0  0  0  0  0  0  0  0  0  0
  -11.0938    7.2966   -6.2620 C   0  0  0  0  0  0  0  0  0  0  0  0
  -10.5427    6.3563   -7.2743 C   0  0  0  0  0  0  0  0  0  0  0  0
   -9.9303    6.8172   -8.5677 C   0  0  0  0  0  0  0  0  0  0  0  0
  -10.3094    8.0141   -9.2349 C   0  0  0  0  0  0  0  0  0  0  0  0
   -9.5154    8.5406  -10.2915 C   0  0  0  0  0  0  0  0  0  0  0  0
   -9.9320   10.1264  -11.1084 S   0  0  0  0  0  0  0  0  0  0  0  0
  -11.0544    9.7505  -11.9603 O   0  0  0  0  0  0  0  0  0  0  0  0
  -10.2369   10.9985   -9.9805 O   0  0  0  0  0  0  0  0  0  0  0  0
   -8.7053   10.4720  -11.8298 O   0  5  0  0  0  0  0  0  0  0  0  0
   -8.3373    7.9094  -10.6910 C   0  0  0  0  0  0  0  0  0  0  0  0
   -7.9623    6.7335  -10.0631 C   0  0  0  0  0  0  0  0  0  0  0  0
   -8.7447    6.2045   -9.0298 C   0  0  0  0  0  0  0  0  0  0  0  0
   -8.2502    5.1112   -8.4303 F   0  0  0  0  0  0  0  0  0  0  0  0
  -10.3824    5.1673   -6.6163 C   0  0  0  0  0  0  0  0  0  0  0  0
  -10.3489    3.8055   -7.1222 C   0  0  0  0  0  0  0  0  0  0  0  0
  -10.1979    2.9523   -6.0794 C   0  0  0  0  0  0  0  0  0  0  0  0
   -9.9686    3.7060   -4.8401 C   0  0  0  0  0  0  0  0  0  0  0  0
  -10.2339    4.9802   -5.2365 N   0  0  0  0  0  0  0  0  0  0  0  0
  -10.1404    8.0539   -5.4622 C   0  0  0  0  0  0  0  0  0  0  0  0
  -10.7525    7.9841   -4.2743 C   0  0  0  0  0  0  0  0  0  0  0  0
   -7.7255    5.0062   -1.0814 C   0  0  0  0  0  0  0  0  0  0  0  0
   -7.6781    4.2865   -2.2065 C   0  0  0  0  0  0  0  0  0  0  0  0
   -8.2844    1.3250   -4.2876 C   0  0  0  0  0  0  0  0  0  0  0  0
   -7.9885    0.0001   -4.1804 C   0  0  0  0  0  0  0  0  0  0  0  0
   -0.6894    0.3647   -5.3122 C   0  0  0  0  0  0  0  0  0  0  0  0
   -0.2611    0.5000   -4.0185 C   0  0  0  0  0  0  0  0  0  0  0  0
    0.0090    1.6512   -3.2994 N   0  0  0  0  0  0  0  0  0  0  0  0
   -0.1448    2.9719   -3.8942 C   0  0  0  0  0  0  0  0  0  0  0  0
    0.4425    1.5425   -1.9730 C   0  0  0  0  0  0  0  0  0  0  0  0
    0.7514    2.5348   -1.3068 O   0  0  0  0  0  0  0  0  0  0  0  0
    0.9765   -0.8797    0.2484 H   0  0  0  0  0  0  0  0  0  0  0  0
    0.2604    0.6797    0.5780 H   0  0  0  0  0  0  0  0  0  0  0  0
    1.9268    0.5748    0.0631 H   0  0  0  0  0  0  0  0  0  0  0  0
    0.8343   -3.5496   -5.9512 H   0  0  0  0  0  0  0  0  0  0  0  0
    0.6510   -5.9683   -5.8478 H   0  0  0  0  0  0  0  0  0  0  0  0
   -1.9989   -5.6432   -2.6033 H   0  0  0  0  0  0  0  0  0  0  0  0
   -1.7782   -3.2307   -2.6758 H   0  0  0  0  0  0  0  0  0  0  0  0
   -1.4450   -2.5582   -6.7550 H   0  0  0  0  0  0  0  0  0  0  0  0
   -0.7243   -1.1670   -7.5936 H   0  0  0  0  0  0  0  0  0  0  0  0
   -4.7191   -0.9911   -6.7266 H   0  0  0  0  0  0  0  0  0  0  0  0
   -3.0307   -2.8720   -5.3040 H   0  0  0  0  0  0  0  0  0  0  0  0
   -4.8001   -2.8208   -5.3601 H   0  0  0  0  0  0  0  0  0  0  0  0
   -3.2649   -0.6646   -4.0047 H   0  0  0  0  0  0  0  0  0  0  0  0
   -3.6464   -2.1750   -3.1789 H   0  0  0  0  0  0  0  0  0  0  0  0
   -5.7001   -0.4604   -4.4920 H   0  0  0  0  0  0  0  0  0  0  0  0
   -5.2526   -0.3448   -2.7852 H   0  0  0  0  0  0  0  0  0  0  0  0
   -5.9262   -2.9873   -3.4536 H   0  0  0  0  0  0  0  0  0  0  0  0
   -9.2819   -0.6211   -1.1436 H   0  0  0  0  0  0  0  0  0  0  0  0
  -10.2657    1.5768   -1.5881 H   0  0  0  0  0  0  0  0  0  0  0  0
  -10.2359    8.7164    1.2128 H   0  0  0  0  0  0  0  0  0  0  0  0
   -7.1662   11.4113    0.1693 H   0  0  0  0  0  0  0  0  0  0  0  0
   -5.9646    9.6003   -0.9111 H   0  0  0  0  0  0  0  0  0  0  0  0
  -12.0812    5.4192    1.0191 H   0  0  0  0  0  0  0  0  0  0  0  0
  -13.7628    5.1847   -1.0299 H   0  0  0  0  0  0  0  0  0  0  0  0
  -11.2848    8.3310   -1.6505 H   0  0  0  0  0  0  0  0  0  0  0  0
  -13.1461    4.4662   -5.1130 H   0  0  0  0  0  0  0  0  0  0  0  0
  -17.2670    3.8456   -4.3990 H   0  0  0  0  0  0  0  0  0  0  0  0
  -17.3215    5.8384   -3.0163 H   0  0  0  0  0  0  0  0  0  0  0  0
  -11.1703    8.5065   -8.9495 H   0  0  0  0  0  0  0  0  0  0  0  0
   -7.7550    8.3120  -11.4419 H   0  0  0  0  0  0  0  0  0  0  0  0
   -7.1024    6.2451  -10.3582 H   0  0  0  0  0  0  0  0  0  0  0  0
  -10.4273    3.5322   -8.1142 H   0  0  0  0  0  0  0  0  0  0  0  0
  -10.2382    1.9233   -6.1467 H   0  0  0  0  0  0  0  0  0  0  0  0
  -10.3161    5.7224   -4.5950 H   0  0  0  0  0  0  0  0  0  0  0  0
   -9.2546    8.5096   -5.7320 H   0  0  0  0  0  0  0  0  0  0  0  0
  -10.3419    8.3338   -3.3945 H   0  0  0  0  0  0  0  0  0  0  0  0
   -6.9197    5.1909   -0.4637 H   0  0  0  0  0  0  0  0  0  0  0  0
   -6.8577    3.9179   -2.7126 H   0  0  0  0  0  0  0  0  0  0  0  0
   -7.8501    1.9055   -5.0220 H   0  0  0  0  0  0  0  0  0  0  0  0
   -7.5778   -0.5039   -4.9819 H   0  0  0  0  0  0  0  0  0  0  0  0
   -0.8582    1.1317   -5.9817 H   0  0  0  0  0  0  0  0  0  0  0  0
   -0.4810    2.8709   -4.9050 H   0  0  0  0  0  0  0  0  0  0  0  0
    0.7962    3.4810   -3.8805 H   0  0  0  0  0  0  0  0  0  0  0  0
   -0.8626    3.5340   -3.3340 H   0  0  0  0  0  0  0  0  0  0  0  0
  1  2  1  0  0  0  0
  1 94  1  0  0  0  0
  1 95  1  0  0  0  0
  1 96  1  0  0  0  0
  2  3  1  0  0  0  0
  2 92  1  0  0  0  0
  3  4  2  0  0  0  0
  3  5  1  0  0  0  0
  5  6  2  0  0  0  0
  5 89  1  0  0  0  0
  6  7  1  0  0  0  0
  6 14  1  0  0  0  0
  7  8  1  0  0  0  0
  7 13  2  0  0  0  0
  8  9  2  0  0  0  0
  8 97  1  0  0  0  0
  9 10  1  0  0  0  0
  9 98  1  0  0  0  0
 10 11  1  0  0  0  0
 10 12  2  0  0  0  0
 12 13  1  0  0  0  0
 12 99  1  0  0  0  0
 13100  1  0  0  0  0
 14 15  1  0  0  0  0
 14 88  1  0  0  0  0
 15 16  1  0  0  0  0
 15101  1  0  0  0  0
 15102  1  0  0  0  0
 16 17  2  0  0  0  0
 16 18  1  0  0  0  0
 18 19  1  0  0  0  0
 18103  1  0  0  0  0
 19 20  1  0  0  0  0
 19104  1  0  0  0  0
 19105  1  0  0  0  0
 20 21  1  0  0  0  0
 20106  1  0  0  0  0
 20107  1  0  0  0  0
 21 22  1  0  0  0  0
 21108  1  0  0  0  0
 21109  1  0  0  0  0
 22 23  1  0  0  0  0
 22110  1  0  0  0  0
 23 24  2  0  0  0  0
 23 25  1  0  0  0  0
 25 26  1  0  0  0  0
 25 87  2  0  0  0  0
 26 27  2  0  0  0  0
 26111  1  0  0  0  0
 27 28  1  0  0  0  0
 27112  1  0  0  0  0
 28 29  1  0  0  0  0
 28 86  2  0  0  0  0
 29 30  1  0  0  0  0
 29 80  2  0  0  0  0
 30 31  2  0  0  0  0
 30 85  1  0  0  0  0
 31 32  1  0  0  0  0
 32 33  2  0  0  0  0
 32 84  1  0  0  0  0
 33 34  1  0  0  0  0
 33 45  1  0  0  0  0
 34 35  1  0  0  0  0
 34 43  2  0  0  0  0
 35 36  2  0  0  0  0
 35113  1  0  0  0  0
 36 37  1  0  0  0  0
 36 41  1  0  0  0  0
 37 38  2  0  0  0  0
 37 39  2  0  0  0  0
 37 40  1  0  0  0  0
 41 42  2  0  0  0  0
 41114  1  0  0  0  0
 42 43  1  0  0  0  0
 42115  1  0  0  0  0
 43 44  1  0  0  0  0
 45 46  2  0  0  0  0
 45 49  1  0  0  0  0
 46 47  1  0  0  0  0
 46116  1  0  0  0  0
 47 48  2  0  0  0  0
 47117  1  0  0  0  0
 48 49  1  0  0  0  0
 48 50  1  0  0  0  0
 49118  1  0  0  0  0
 50 51  1  0  0  0  0
 50 62  2  0  0  0  0
 51 52  1  0  0  0  0
 51 60  2  0  0  0  0
 52 53  2  0  0  0  0
 52119  1  0  0  0  0
 53 54  1  0  0  0  0
 53 58  1  0  0  0  0
 54 55  2  0  0  0  0
 54 56  2  0  0  0  0
 54 57  1  0  0  0  0
 58 59  2  0  0  0  0
 58120  1  0  0  0  0
 59 60  1  0  0  0  0
 59121  1  0  0  0  0
 60 61  1  0  0  0  0
 62 63  1  0  0  0  0
 62 83  1  0  0  0  0
 63 64  2  0  0  0  0
 64 65  1  0  0  0  0
 64 82  1  0  0  0  0
 65 66  1  0  0  0  0
 65 77  2  0  0  0  0
 66 67  1  0  0  0  0
 66 75  2  0  0  0  0
 67 68  2  0  0  0  0
 67122  1  0  0  0  0
 68 69  1  0  0  0  0
 68 73  1  0  0  0  0
 69 70  2  0  0  0  0
 69 71  2  0  0  0  0
 69 72  1  0  0  0  0
 73 74  2  0  0  0  0
 73123  1  0  0  0  0
 74 75  1  0  0  0  0
 74124  1  0  0  0  0
 75 76  1  0  0  0  0
 77 78  1  0  0  0  0
 77 81  1  0  0  0  0
 78 79  2  0  0  0  0
 78125  1  0  0  0  0
 79 80  1  0  0  0  0
 79126  1  0  0  0  0
 80 81  1  0  0  0  0
 81127  1  0  0  0  0
 82 83  2  0  0  0  0
 82128  1  0  0  0  0
 83129  1  0  0  0  0
 84 85  2  0  0  0  0
 84130  1  0  0  0  0
 85131  1  0  0  0  0
 86 87  1  0  0  0  0
 86132  1  0  0  0  0
 87133  1  0  0  0  0
 88 89  2  0  0  0  0
 88134  1  0  0  0  0
 89 90  1  0  0  0  0
 90 91  1  0  0  0  0
 90 92  1  0  0  0  0
 91135  1  0  0  0  0
 91136  1  0  0  0  0
 91137  1  0  0  0  0
 92 93  2  0  0  0  0
M  CHG  3  40  -1  57  -1  72  -1
M  END
$$$$
