5_2_3340
 OpenBabel04152301373D

136146  0  0  1  0  0  0  0  0999 V2000
    1.0788   -2.8108   -1.4153 C   0  0  0  0  0  0  0  0  0  0  0  0
    0.0810   -2.2585   -0.3713 C   0  0  2  0  0  0  0  0  0  0  0  0
    0.6107   -1.0659    0.4413 C   0  0  0  0  0  0  0  0  0  0  0  0
    0.5345    0.0876   -0.0016 O   0  0  0  0  0  0  0  0  0  0  0  0
    1.2028   -1.1174    1.6486 N   0  0  0  0  0  0  0  0  0  0  0  0
    1.5228   -2.1508    2.6111 C   0  0  0  0  0  0  0  0  0  0  0  0
    2.9899   -2.5406    2.5504 C   0  0  0  0  0  0  0  0  0  0  0  0
    3.9259   -1.3904    2.9156 C   0  0  0  0  0  0  0  0  0  0  0  0
    3.7311   -0.9486    4.2918 N   0  0  0  0  0  0  0  0  0  0  0  0
    4.3903   -1.3277    5.4343 C   0  0  0  0  0  0  0  0  0  0  0  0
    3.8700   -1.1137    6.5289 O   0  0  0  0  0  0  0  0  0  0  0  0
    5.7085   -1.9900    5.3515 C   0  0  0  0  0  0  0  0  0  0  0  0
    6.0026   -3.0489    6.2152 C   0  0  0  0  0  0  0  0  0  0  0  0
    7.2481   -3.6790    6.1409 C   0  0  0  0  0  0  0  0  0  0  0  0
    8.1896   -3.2788    5.1792 C   0  0  0  0  0  0  0  0  0  0  0  0
    9.5120   -3.9437    5.0561 C   0  0  0  0  0  0  0  0  0  0  0  0
   10.7688   -3.1592    5.3263 C   0  0  0  0  0  0  0  0  0  0  0  0
   12.0171   -3.5094    5.1546 N   0  0  0  0  0  0  0  0  0  0  0  0
   12.7749   -2.3933    5.4949 C   0  0  0  0  0  0  0  0  0  0  0  0
   14.1241   -2.2650    5.5323 C   0  0  0  0  0  0  0  0  0  0  0  0
   14.6894   -0.9164    5.9050 C   0  0  0  0  0  0  0  0  0  0  0  0
   14.5005   -0.3612    7.1823 C   0  0  0  0  0  0  0  0  0  0  0  0
   14.9853    0.9241    7.4661 C   0  0  0  0  0  0  0  0  0  0  0  0
   14.5220    1.7033    9.0368 S   0  0  0  0  0  0  0  0  0  0  0  0
   13.0667    1.7748    8.9100 O   0  0  0  0  0  0  0  0  0  0  0  0
   15.0277    0.7499   10.0227 O   0  0  0  0  0  0  0  0  0  0  0  0
   15.2092    2.9868    9.0016 O   0  5  0  0  0  0  0  0  0  0  0  0
   15.7400    1.6366    6.5307 C   0  0  0  0  0  0  0  0  0  0  0  0
   15.9686    1.0757    5.2775 C   0  0  0  0  0  0  0  0  0  0  0  0
   15.4250   -0.1720    4.9655 C   0  0  0  0  0  0  0  0  0  0  0  0
   15.6214   -0.6426    3.7237 F   0  0  0  0  0  0  0  0  0  0  0  0
   15.0378   -3.3355    5.2187 C   0  0  0  0  0  0  0  0  0  0  0  0
   16.4199   -3.3390    5.2928 C   0  0  0  0  0  0  0  0  0  0  0  0
   16.8805   -4.5792    4.8373 C   0  0  0  0  0  0  0  0  0  0  0  0
   15.7844   -5.3737    4.5418 C   0  0  0  0  0  0  0  0  0  0  0  0
   14.6612   -4.5947    4.7703 N   0  0  0  0  0  0  0  0  0  0  0  0
   15.7656   -6.7445    4.0926 C   0  0  0  0  0  0  0  0  0  0  0  0
   17.0819   -7.4657    3.9545 C   0  0  0  0  0  0  0  0  0  0  0  0
   17.5741   -7.8707    2.7023 C   0  0  0  0  0  0  0  0  0  0  0  0
   18.7698   -8.5999    2.6265 C   0  0  0  0  0  0  0  0  0  0  0  0
   19.2851   -9.2612    1.0184 S   0  0  0  0  0  0  0  0  0  0  0  0
   18.1518  -10.1083    0.6611 O   0  0  0  0  0  0  0  0  0  0  0  0
   19.4515   -8.0501    0.2214 O   0  0  0  0  0  0  0  0  0  0  0  0
   20.5230   -9.9768    1.3223 O   0  5  0  0  0  0  0  0  0  0  0  0
   19.5245   -8.8732    3.7707 C   0  0  0  0  0  0  0  0  0  0  0  0
   19.0624   -8.4389    5.0101 C   0  0  0  0  0  0  0  0  0  0  0  0
   17.8456   -7.7626    5.0971 C   0  0  0  0  0  0  0  0  0  0  0  0
   17.4198   -7.3978    6.3171 F   0  0  0  0  0  0  0  0  0  0  0  0
   14.6434   -7.4589    3.8241 C   0  0  0  0  0  0  0  0  0  0  0  0
   13.3093   -7.0718    3.9122 N   0  0  0  0  0  0  0  0  0  0  0  0
   12.6091   -8.1172    3.5352 C   0  0  0  0  0  0  0  0  0  0  0  0
   11.1111   -8.2813    3.4693 C   0  0  0  0  0  0  0  0  0  0  0  0
   10.5078   -9.5406    2.9469 C   0  0  0  0  0  0  0  0  0  0  0  0
   10.6907  -10.7602    3.6172 C   0  0  0  0  0  0  0  0  0  0  0  0
   10.2112  -11.9505    3.0492 C   0  0  0  0  0  0  0  0  0  0  0  0
   10.6355  -13.5235    3.8466 S   0  0  0  0  0  0  0  0  0  0  0  0
   12.0906  -13.4443    3.9065 O   0  0  0  0  0  0  0  0  0  0  0  0
    9.9335  -13.4133    5.1209 O   0  0  0  0  0  0  0  0  0  0  0  0
   10.1016  -14.5254    2.9266 O   0  5  0  0  0  0  0  0  0  0  0  0
    9.4900  -11.9441    1.8533 C   0  0  0  0  0  0  0  0  0  0  0  0
    9.2645  -10.7334    1.2055 C   0  0  0  0  0  0  0  0  0  0  0  0
    9.7873   -9.5540    1.7394 C   0  0  0  0  0  0  0  0  0  0  0  0
    9.5759   -8.4145    1.0615 F   0  0  0  0  0  0  0  0  0  0  0  0
   10.3293   -7.2634    3.8808 C   0  0  0  0  0  0  0  0  0  0  0  0
    8.8702   -7.2625    3.8798 C   0  0  0  0  0  0  0  0  0  0  0  0
    8.4310   -6.0605    4.2868 C   0  0  0  0  0  0  0  0  0  0  0  0
    9.5814   -5.2169    4.6206 C   0  0  0  0  0  0  0  0  0  0  0  0
   10.6644   -6.0191    4.3639 N   0  0  0  0  0  0  0  0  0  0  0  0
   13.4210   -9.2731    3.1343 C   0  0  0  0  0  0  0  0  0  0  0  0
   14.6479   -8.8354    3.3739 C   0  0  0  0  0  0  0  0  0  0  0  0
   11.8425   -1.3414    5.8390 C   0  0  0  0  0  0  0  0  0  0  0  0
   10.5944   -1.7850    5.8235 C   0  0  0  0  0  0  0  0  0  0  0  0
    7.8860   -2.2046    4.3304 C   0  0  0  0  0  0  0  0  0  0  0  0
    6.6773   -1.5284    4.4569 C   0  0  0  0  0  0  0  0  0  0  0  0
   -0.3921   -3.4404    0.4603 C   0  0  0  0  0  0  0  0  0  0  0  0
   -1.3858   -4.1029   -0.3288 O   0  0  0  0  0  0  0  0  0  0  0  0
   -2.1243   -3.0729   -0.9915 C   0  0  0  0  0  0  0  0  0  0  0  0
   -1.2608   -1.8016   -1.0073 C   0  0  2  0  0  0  0  0  0  0  0  0
   -1.1613   -1.1735   -2.3398 N   0  0  0  0  0  0  0  0  0  0  0  0
   -0.8843    0.1814   -2.4486 C   0  0  0  0  0  0  0  0  0  0  0  0
   -1.7562    0.9819   -2.1015 O   0  0  0  0  0  0  0  0  0  0  0  0
    0.3319    0.5748   -3.3276 C   0  0  1  0  0  0  0  0  0  0  0  0
    0.5171    2.0658   -3.3610 C   0  0  0  0  0  0  0  0  0  0  0  0
    1.7613    2.4495   -3.0584 C   0  0  0  0  0  0  0  0  0  0  0  0
    2.6603    1.2981   -2.7899 C   0  0  1  0  0  0  0  0  0  0  0  0
    3.2787    1.3893   -1.4763 N   0  3  0  0  0  0  0  0  0  0  0  0
    1.7226    0.0863   -2.8889 C   0  0  0  0  0  0  0  0  0  0  0  0
    0.6335   -3.6342   -1.9336 H   0  0  0  0  0  0  0  0  0  0  0  0
    1.9679   -3.1403   -0.9195 H   0  0  0  0  0  0  0  0  0  0  0  0
    1.3256   -2.0401   -2.1154 H   0  0  0  0  0  0  0  0  0  0  0  0
    1.4914   -0.2274    1.9549 H   0  0  0  0  0  0  0  0  0  0  0  0
    0.9258   -3.0143    2.4041 H   0  0  0  0  0  0  0  0  0  0  0  0
    1.3193   -1.7694    3.5899 H   0  0  0  0  0  0  0  0  0  0  0  0
    3.2167   -2.8627    1.5556 H   0  0  0  0  0  0  0  0  0  0  0  0
    3.1449   -3.3205    3.2664 H   0  0  0  0  0  0  0  0  0  0  0  0
    3.7367   -0.5679    2.2579 H   0  0  0  0  0  0  0  0  0  0  0  0
    4.9332   -1.7378    2.8176 H   0  0  0  0  0  0  0  0  0  0  0  0
    3.0211   -0.2788    4.4203 H   0  0  0  0  0  0  0  0  0  0  0  0
    5.3029   -3.3643    6.9051 H   0  0  0  0  0  0  0  0  0  0  0  0
    7.4769   -4.4425    6.7964 H   0  0  0  0  0  0  0  0  0  0  0  0
   14.0054   -0.8988    7.9109 H   0  0  0  0  0  0  0  0  0  0  0  0
   16.1226    2.5658    6.7657 H   0  0  0  0  0  0  0  0  0  0  0  0
   16.5384    1.5807    4.5808 H   0  0  0  0  0  0  0  0  0  0  0  0
   17.0095   -2.5606    5.6267 H   0  0  0  0  0  0  0  0  0  0  0  0
   17.8698   -4.8556    4.7381 H   0  0  0  0  0  0  0  0  0  0  0  0
   13.7321   -4.8907    4.6346 H   0  0  0  0  0  0  0  0  0  0  0  0
   17.0575   -7.6324    1.8412 H   0  0  0  0  0  0  0  0  0  0  0  0
   20.4142   -9.3910    3.6977 H   0  0  0  0  0  0  0  0  0  0  0  0
   19.6181   -8.6167    5.8613 H   0  0  0  0  0  0  0  0  0  0  0  0
   11.1774  -10.7815    4.5270 H   0  0  0  0  0  0  0  0  0  0  0  0
    9.1292  -12.8253    1.4554 H   0  0  0  0  0  0  0  0  0  0  0  0
    8.7129  -10.7073    0.3337 H   0  0  0  0  0  0  0  0  0  0  0  0
    8.2714   -8.0584    3.6095 H   0  0  0  0  0  0  0  0  0  0  0  0
    7.4412   -5.7764    4.3538 H   0  0  0  0  0  0  0  0  0  0  0  0
   11.5943   -5.7315    4.5115 H   0  0  0  0  0  0  0  0  0  0  0  0
   13.1159  -10.1865    2.7633 H   0  0  0  0  0  0  0  0  0  0  0  0
   15.5007   -9.4043    3.2547 H   0  0  0  0  0  0  0  0  0  0  0  0
   12.1144   -0.3723    6.0667 H   0  0  0  0  0  0  0  0  0  0  0  0
    9.7263   -1.2949    6.0904 H   0  0  0  0  0  0  0  0  0  0  0  0
    8.5632   -1.9142    3.6079 H   0  0  0  0  0  0  0  0  0  0  0  0
    6.4960   -0.6855    3.8898 H   0  0  0  0  0  0  0  0  0  0  0  0
   -0.8149   -3.1009    1.3827 H   0  0  0  0  0  0  0  0  0  0  0  0
    0.4165   -4.0968    0.7056 H   0  0  0  0  0  0  0  0  0  0  0  0
   -3.0369   -2.8850   -0.4654 H   0  0  0  0  0  0  0  0  0  0  0  0
   -2.3626   -3.3718   -1.9909 H   0  0  0  0  0  0  0  0  0  0  0  0
   -1.6884   -0.9957   -0.4481 H   0  0  0  0  0  0  0  0  0  0  0  0
   -1.2915   -1.7161   -3.1509 H   0  0  0  0  0  0  0  0  0  0  0  0
    0.0609    0.1065   -4.2507 H   0  0  0  0  0  0  0  0  0  0  0  0
   -0.2402    2.7270   -3.5941 H   0  0  0  0  0  0  0  0  0  0  0  0
    2.0634    3.4354   -3.0161 H   0  0  0  0  0  0  0  0  0  0  0  0
    3.4821    1.2475   -3.4733 H   0  0  0  0  0  0  0  0  0  0  0  0
    2.5528    1.4418   -0.7617 H   0  0  0  0  0  0  0  0  0  0  0  0
    3.8607    2.2258   -1.4318 H   0  0  0  0  0  0  0  0  0  0  0  0
    3.8562    0.5643   -1.3143 H   0  0  0  0  0  0  0  0  0  0  0  0
    2.1046   -0.6069   -3.6089 H   0  0  0  0  0  0  0  0  0  0  0  0
    1.6552   -0.4016   -1.9390 H   0  0  0  0  0  0  0  0  0  0  0  0
  1 88  1  0  0  0  0
  1 89  1  0  0  0  0
  1 90  1  0  0  0  0
  2 75  1  0  0  0  0
  2 78  1  0  0  0  0
  2  3  1  1  0  0  0
  2  1  1  0  0  0  0
  3  4  2  0  0  0  0
  3  5  1  0  0  0  0
  5  6  1  0  0  0  0
  5 91  1  0  0  0  0
  6  7  1  0  0  0  0
  6 92  1  0  0  0  0
  6 93  1  0  0  0  0
  7  8  1  0  0  0  0
  7 94  1  0  0  0  0
  7 95  1  0  0  0  0
  8  9  1  0  0  0  0
  8 96  1  0  0  0  0
  8 97  1  0  0  0  0
  9 10  1  0  0  0  0
  9 98  1  0  0  0  0
 10 11  2  0  0  0  0
 10 12  1  0  0  0  0
 12 13  1  0  0  0  0
 12 74  2  0  0  0  0
 13 14  2  0  0  0  0
 13 99  1  0  0  0  0
 14 15  1  0  0  0  0
 14100  1  0  0  0  0
 15 16  1  0  0  0  0
 15 73  2  0  0  0  0
 16 17  1  0  0  0  0
 16 67  2  0  0  0  0
 17 18  2  0  0  0  0
 17 72  1  0  0  0  0
 18 19  1  0  0  0  0
 19 20  2  0  0  0  0
 19 71  1  0  0  0  0
 20 21  1  0  0  0  0
 20 32  1  0  0  0  0
 21 22  1  0  0  0  0
 21 30  2  0  0  0  0
 22 23  2  0  0  0  0
 22101  1  0  0  0  0
 23 24  1  0  0  0  0
 23 28  1  0  0  0  0
 24 25  2  0  0  0  0
 24 26  2  0  0  0  0
 24 27  1  0  0  0  0
 28 29  2  0  0  0  0
 28102  1  0  0  0  0
 29 30  1  0  0  0  0
 29103  1  0  0  0  0
 30 31  1  0  0  0  0
 32 33  2  0  0  0  0
 32 36  1  0  0  0  0
 33 34  1  0  0  0  0
 33104  1  0  0  0  0
 34 35  2  0  0  0  0
 34105  1  0  0  0  0
 35 36  1  0  0  0  0
 35 37  1  0  0  0  0
 36106  1  0  0  0  0
 37 38  1  0  0  0  0
 37 49  2  0  0  0  0
 38 39  1  0  0  0  0
 38 47  2  0  0  0  0
 39 40  2  0  0  0  0
 39107  1  0  0  0  0
 40 41  1  0  0  0  0
 40 45  1  0  0  0  0
 41 42  2  0  0  0  0
 41 43  2  0  0  0  0
 41 44  1  0  0  0  0
 45 46  2  0  0  0  0
 45108  1  0  0  0  0
 46 47  1  0  0  0  0
 46109  1  0  0  0  0
 47 48  1  0  0  0  0
 49 50  1  0  0  0  0
 49 70  1  0  0  0  0
 50 51  2  0  0  0  0
 51 52  1  0  0  0  0
 51 69  1  0  0  0  0
 52 53  1  0  0  0  0
 52 64  2  0  0  0  0
 53 54  1  0  0  0  0
 53 62  2  0  0  0  0
 54 55  2  0  0  0  0
 54110  1  0  0  0  0
 55 56  1  0  0  0  0
 55 60  1  0  0  0  0
 56 57  2  0  0  0  0
 56 58  2  0  0  0  0
 56 59  1  0  0  0  0
 60 61  2  0  0  0  0
 60111  1  0  0  0  0
 61 62  1  0  0  0  0
 61112  1  0  0  0  0
 62 63  1  0  0  0  0
 64 65  1  0  0  0  0
 64 68  1  0  0  0  0
 65 66  2  0  0  0  0
 65113  1  0  0  0  0
 66 67  1  0  0  0  0
 66114  1  0  0  0  0
 67 68  1  0  0  0  0
 68115  1  0  0  0  0
 69 70  2  0  0  0  0
 69116  1  0  0  0  0
 70117  1  0  0  0  0
 71 72  2  0  0  0  0
 71118  1  0  0  0  0
 72119  1  0  0  0  0
 73 74  1  0  0  0  0
 73120  1  0  0  0  0
 74121  1  0  0  0  0
 75 76  1  0  0  0  0
 75122  1  0  0  0  0
 75123  1  0  0  0  0
 76 77  1  0  0  0  0
 77 78  1  0  0  0  0
 77124  1  0  0  0  0
 77125  1  0  0  0  0
 78 79  1  0  0  0  0
 78126  1  1  0  0  0
 79 80  1  0  0  0  0
 79127  1  0  0  0  0
 80 81  2  0  0  0  0
 80 82  1  0  0  0  0
 82 83  1  0  0  0  0
 82 87  1  0  0  0  0
 82128  1  6  0  0  0
 83 84  2  0  0  0  0
 83129  1  0  0  0  0
 84 85  1  0  0  0  0
 84130  1  0  0  0  0
 85 86  1  0  0  0  0
 85 87  1  0  0  0  0
 85131  1  6  0  0  0
 86132  1  0  0  0  0
 86133  1  0  0  0  0
 86134  1  0  0  0  0
 87135  1  0  0  0  0
 87136  1  0  0  0  0
M  CHG  4  27  -1  44  -1  59  -1  86   1
M  END
$$$$
