5_2_2191
 OpenBabel04152301373D

140150  0  0  1  0  0  0  0  0999 V2000
   -8.7524    8.9036   -0.4065 C   0  0  0  0  0  0  0  0  0  0  0  0
   -8.0340    7.6883   -0.9105 C   0  0  0  0  0  0  0  0  0  0  0  0
   -8.3213    7.1945   -2.1851 C   0  0  0  0  0  0  0  0  0  0  0  0
   -7.7245    6.0183   -2.6254 C   0  0  0  0  0  0  0  0  0  0  0  0
   -6.8197    5.3395   -1.8073 C   0  0  0  0  0  0  0  0  0  0  0  0
   -6.4244    5.8672   -0.5806 C   0  0  0  0  0  0  0  0  0  0  0  0
   -5.3704    5.2315    0.3008 C   0  0  0  0  0  0  0  0  0  0  0  0
   -4.4471    4.1021   -0.2471 C   0  0  2  0  0  0  0  0  0  0  0  0
   -3.7038    3.4948    0.9734 C   0  0  0  0  0  0  0  0  0  0  0  0
   -3.5950    4.1180    2.0327 O   0  0  0  0  0  0  0  0  0  0  0  0
   -3.0994    2.2702    0.8959 N   0  0  0  0  0  0  0  0  0  0  0  0
   -3.1230    1.2526   -0.1455 C   0  0  0  0  0  0  0  0  0  0  0  0
   -1.8739    1.2284   -1.0310 C   0  0  0  0  0  0  0  0  0  0  0  0
   -0.7277    0.3893   -0.4693 C   0  0  0  0  0  0  0  0  0  0  0  0
   -0.1707   -0.5094   -1.4890 N   0  0  0  0  0  0  0  0  0  0  0  0
    1.0522   -1.1576   -1.5248 C   0  0  0  0  0  0  0  0  0  0  0  0
    1.3531   -1.9410   -2.4037 O   0  0  0  0  0  0  0  0  0  0  0  0
    1.9463   -0.9620   -0.3668 C   0  0  0  0  0  0  0  0  0  0  0  0
    2.1089   -2.0545    0.4895 C   0  0  0  0  0  0  0  0  0  0  0  0
    2.3749   -1.8176    1.8318 C   0  0  0  0  0  0  0  0  0  0  0  0
    2.4353   -0.4973    2.2812 C   0  0  0  0  0  0  0  0  0  0  0  0
    2.2828   -0.1533    3.6922 C   0  0  0  0  0  0  0  0  0  0  0  0
    3.4364    0.3105    4.4832 C   0  0  0  0  0  0  0  0  0  0  0  0
    3.5455    0.1686    5.7611 N   0  0  0  0  0  0  0  0  0  0  0  0
    4.6191    0.9199    6.1750 C   0  0  0  0  0  0  0  0  0  0  0  0
    4.7558    1.2292    7.4965 C   0  0  0  0  0  0  0  0  0  0  0  0
    5.6586    2.3295    8.0068 C   0  0  0  0  0  0  0  0  0  0  0  0
    5.2964    3.0267    9.1773 C   0  0  0  0  0  0  0  0  0  0  0  0
    6.0101    4.1594    9.6086 C   0  0  0  0  0  0  0  0  0  0  0  0
    5.5160    4.9747   11.1506 S   0  0  0  0  0  0  0  0  0  0  0  0
    4.1259    5.3279   10.8841 O   0  0  0  0  0  0  0  0  0  0  0  0
    5.7393    3.9235   12.1370 O   0  0  0  0  0  0  0  0  0  0  0  0
    6.4342    6.1096   11.2420 O   0  5  0  0  0  0  0  0  0  0  0  0
    7.0878    4.6523    8.8804 C   0  0  0  0  0  0  0  0  0  0  0  0
    7.5131    3.9403    7.7706 C   0  0  0  0  0  0  0  0  0  0  0  0
    6.8427    2.7713    7.3865 C   0  0  0  0  0  0  0  0  0  0  0  0
    7.4404    2.0593    6.4219 F   0  0  0  0  0  0  0  0  0  0  0  0
    3.7336    0.5841    8.3241 C   0  0  0  0  0  0  0  0  0  0  0  0
    2.5610    1.0079    8.9284 C   0  0  0  0  0  0  0  0  0  0  0  0
    1.8399   -0.1459    9.3572 C   0  0  0  0  0  0  0  0  0  0  0  0
    2.5827   -1.2657    9.0303 C   0  0  0  0  0  0  0  0  0  0  0  0
    3.7298   -0.7963    8.4207 N   0  0  0  0  0  0  0  0  0  0  0  0
    2.3794   -2.7024    9.1376 C   0  0  0  0  0  0  0  0  0  0  0  0
    3.1483   -3.5073   10.1508 C   0  0  0  0  0  0  0  0  0  0  0  0
    2.5401   -4.5284   10.8987 C   0  0  0  0  0  0  0  0  0  0  0  0
    3.2776   -5.2579   11.8476 C   0  0  0  0  0  0  0  0  0  0  0  0
    2.5109   -6.7101   12.6123 S   0  0  0  0  0  0  0  0  0  0  0  0
    1.2663   -6.1710   13.1491 O   0  0  0  0  0  0  0  0  0  0  0  0
    2.3729   -7.6064   11.4670 O   0  0  0  0  0  0  0  0  0  0  0  0
    3.4899   -7.1313   13.6124 O   0  5  0  0  0  0  0  0  0  0  0  0
    4.5949   -4.9237   12.1580 C   0  0  0  0  0  0  0  0  0  0  0  0
    5.2014   -3.8903   11.4606 C   0  0  0  0  0  0  0  0  0  0  0  0
    4.4978   -3.2235   10.4547 C   0  0  0  0  0  0  0  0  0  0  0  0
    5.2008   -2.3194    9.7565 F   0  0  0  0  0  0  0  0  0  0  0  0
    1.4860   -3.2594    8.2684 C   0  0  0  0  0  0  0  0  0  0  0  0
    0.7828   -2.5239    7.3500 N   0  0  0  0  0  0  0  0  0  0  0  0
    0.1012   -3.3281    6.5802 C   0  0  0  0  0  0  0  0  0  0  0  0
   -0.6603   -2.8912    5.3439 C   0  0  0  0  0  0  0  0  0  0  0  0
   -0.8632   -3.6946    4.1026 C   0  0  0  0  0  0  0  0  0  0  0  0
   -2.0024   -3.3878    3.3247 C   0  0  0  0  0  0  0  0  0  0  0  0
   -2.0003   -3.6227    1.9432 C   0  0  0  0  0  0  0  0  0  0  0  0
   -3.2610   -2.8141    0.9130 S   0  0  0  0  0  0  0  0  0  0  0  0
   -4.2399   -3.8765    0.7254 O   0  0  0  0  0  0  0  0  0  0  0  0
   -3.6904   -1.6900    1.7418 O   0  0  0  0  0  0  0  0  0  0  0  0
   -2.5221   -2.4137   -0.2841 O   0  5  0  0  0  0  0  0  0  0  0  0
   -0.9286   -4.2753    1.3341 C   0  0  0  0  0  0  0  0  0  0  0  0
    0.1365   -4.7128    2.1241 C   0  0  0  0  0  0  0  0  0  0  0  0
    0.1750   -4.4060    3.4902 C   0  0  0  0  0  0  0  0  0  0  0  0
    1.2977   -4.6975    4.1633 F   0  0  0  0  0  0  0  0  0  0  0  0
   -0.5867   -1.5525    5.0897 C   0  0  0  0  0  0  0  0  0  0  0  0
   -0.3312   -0.5099    6.0657 C   0  0  0  0  0  0  0  0  0  0  0  0
    0.7035    0.2184    5.6213 C   0  0  0  0  0  0  0  0  0  0  0  0
    1.0760   -0.2592    4.2930 C   0  0  0  0  0  0  0  0  0  0  0  0
    0.0122   -1.0746    3.9053 N   0  0  0  0  0  0  0  0  0  0  0  0
    0.2302   -4.7271    6.9919 C   0  0  0  0  0  0  0  0  0  0  0  0
    1.0968   -4.6346    8.0144 C   0  0  0  0  0  0  0  0  0  0  0  0
    5.2803    1.3204    4.9527 C   0  0  0  0  0  0  0  0  0  0  0  0
    4.5974    0.9384    3.8700 C   0  0  0  0  0  0  0  0  0  0  0  0
    2.4783    0.5676    1.3695 C   0  0  0  0  0  0  0  0  0  0  0  0
    2.2938    0.3279    0.0206 C   0  0  0  0  0  0  0  0  0  0  0  0
   -3.3701    4.5071   -1.3144 C   0  0  2  0  0  0  0  0  0  0  0  0
   -2.7135    5.8886   -1.1514 C   0  0  0  0  0  0  0  0  0  0  0  0
   -3.2935    6.9687   -2.0485 C   0  0  0  0  0  0  0  0  0  0  0  0
   -3.2388    6.5548   -3.5101 C   0  0  0  0  0  0  0  0  0  0  0  0
   -3.9719    5.2510   -3.7604 C   0  0  0  0  0  0  0  0  0  0  0  0
   -3.6107    4.1192   -2.7995 C   0  0  2  0  0  0  0  0  0  0  0  0
   -4.5917    3.1024   -2.9759 O   0  0  0  0  0  0  0  0  0  0  0  0
   -7.0699    7.0341   -0.1277 C   0  0  0  0  0  0  0  0  0  0  0  0
   -9.4403    9.2457   -1.1512 H   0  0  0  0  0  0  0  0  0  0  0  0
   -8.0423    9.6757   -0.1952 H   0  0  0  0  0  0  0  0  0  0  0  0
   -9.2874    8.6569    0.4867 H   0  0  0  0  0  0  0  0  0  0  0  0
   -8.9763    7.7025   -2.7999 H   0  0  0  0  0  0  0  0  0  0  0  0
   -7.9514    5.6457   -3.5607 H   0  0  0  0  0  0  0  0  0  0  0  0
   -6.4376    4.4321   -2.1165 H   0  0  0  0  0  0  0  0  0  0  0  0
   -5.8849    4.8223    1.1450 H   0  0  0  0  0  0  0  0  0  0  0  0
   -4.6859    6.0363    0.4704 H   0  0  0  0  0  0  0  0  0  0  0  0
   -5.0974    3.4299   -0.7669 H   0  0  0  0  0  0  0  0  0  0  0  0
   -2.5533    2.0360    1.6809 H   0  0  0  0  0  0  0  0  0  0  0  0
   -3.9731    1.4319   -0.7700 H   0  0  0  0  0  0  0  0  0  0  0  0
   -3.1646    0.3061    0.3517 H   0  0  0  0  0  0  0  0  0  0  0  0
   -1.5273    2.2336   -1.1507 H   0  0  0  0  0  0  0  0  0  0  0  0
   -2.1612    0.7774   -1.9578 H   0  0  0  0  0  0  0  0  0  0  0  0
   -1.0932   -0.1962    0.3483 H   0  0  0  0  0  0  0  0  0  0  0  0
    0.0473    1.0522   -0.1455 H   0  0  0  0  0  0  0  0  0  0  0  0
   -0.7550   -0.6759   -2.2637 H   0  0  0  0  0  0  0  0  0  0  0  0
    2.0327   -3.0192    0.1310 H   0  0  0  0  0  0  0  0  0  0  0  0
    2.5251   -2.6026    2.4846 H   0  0  0  0  0  0  0  0  0  0  0  0
    4.4892    2.6985    9.7303 H   0  0  0  0  0  0  0  0  0  0  0  0
    7.5590    5.5269    9.1599 H   0  0  0  0  0  0  0  0  0  0  0  0
    8.3248    4.2714    7.2260 H   0  0  0  0  0  0  0  0  0  0  0  0
    2.2613    1.9882    9.0476 H   0  0  0  0  0  0  0  0  0  0  0  0
    0.9224   -0.1451    9.8297 H   0  0  0  0  0  0  0  0  0  0  0  0
    4.4570   -1.3741    8.0943 H   0  0  0  0  0  0  0  0  0  0  0  0
    1.5421   -4.7454   10.7504 H   0  0  0  0  0  0  0  0  0  0  0  0
    5.1085   -5.4354   12.8924 H   0  0  0  0  0  0  0  0  0  0  0  0
    6.1704   -3.6143   11.6841 H   0  0  0  0  0  0  0  0  0  0  0  0
   -2.8401   -2.9887    3.7763 H   0  0  0  0  0  0  0  0  0  0  0  0
   -0.9229   -4.4326    0.3142 H   0  0  0  0  0  0  0  0  0  0  0  0
    0.8984   -5.2645    1.6997 H   0  0  0  0  0  0  0  0  0  0  0  0
   -0.8517   -0.3564    6.9435 H   0  0  0  0  0  0  0  0  0  0  0  0
    1.1607    0.9889    6.1335 H   0  0  0  0  0  0  0  0  0  0  0  0
   -0.2666   -1.2773    2.9831 H   0  0  0  0  0  0  0  0  0  0  0  0
   -0.2256   -5.5656    6.5992 H   0  0  0  0  0  0  0  0  0  0  0  0
    1.4437   -5.4431    8.5538 H   0  0  0  0  0  0  0  0  0  0  0  0
    6.1721    1.8388    4.9208 H   0  0  0  0  0  0  0  0  0  0  0  0
    4.8297    1.0563    2.8714 H   0  0  0  0  0  0  0  0  0  0  0  0
    2.6474    1.5287    1.7052 H   0  0  0  0  0  0  0  0  0  0  0  0
    2.4100    1.0808   -0.6756 H   0  0  0  0  0  0  0  0  0  0  0  0
   -2.6239    3.8039   -1.0085 H   0  0  0  0  0  0  0  0  0  0  0  0
   -1.6714    5.7923   -1.3743 H   0  0  0  0  0  0  0  0  0  0  0  0
   -2.8976    6.1973   -0.1436 H   0  0  0  0  0  0  0  0  0  0  0  0
   -2.7308    7.8696   -1.9192 H   0  0  0  0  0  0  0  0  0  0  0  0
   -4.3171    7.1220   -1.7771 H   0  0  0  0  0  0  0  0  0  0  0  0
   -2.2149    6.4358   -3.7971 H   0  0  0  0  0  0  0  0  0  0  0  0
   -3.7170    7.3183   -4.0874 H   0  0  0  0  0  0  0  0  0  0  0  0
   -3.7466    4.9279   -4.7553 H   0  0  0  0  0  0  0  0  0  0  0  0
   -5.0112    5.4554   -3.6086 H   0  0  0  0  0  0  0  0  0  0  0  0
   -2.6331    3.7687   -3.0572 H   0  0  0  0  0  0  0  0  0  0  0  0
   -5.4646    3.4500   -2.7348 H   0  0  0  0  0  0  0  0  0  0  0  0
   -6.8288    7.4166    0.8000 H   0  0  0  0  0  0  0  0  0  0  0  0
  1  2  1  0  0  0  0
  1 89  1  0  0  0  0
  1 90  1  0  0  0  0
  1 91  1  0  0  0  0
  2  3  1  0  0  0  0
  2 88  2  0  0  0  0
  3  4  2  0  0  0  0
  3 92  1  0  0  0  0
  4  5  1  0  0  0  0
  4 93  1  0  0  0  0
  5  6  2  0  0  0  0
  5 94  1  0  0  0  0
  6  7  1  0  0  0  0
  6 88  1  0  0  0  0
  7 95  1  0  0  0  0
  7 96  1  0  0  0  0
  8  9  1  0  0  0  0
  8  7  1  0  0  0  0
  8 97  1  6  0  0  0
  9 10  2  0  0  0  0
  9 11  1  0  0  0  0
 11 12  1  0  0  0  0
 11 98  1  0  0  0  0
 12 13  1  0  0  0  0
 12 99  1  0  0  0  0
 12100  1  0  0  0  0
 13 14  1  0  0  0  0
 13101  1  0  0  0  0
 13102  1  0  0  0  0
 14 15  1  0  0  0  0
 14103  1  0  0  0  0
 14104  1  0  0  0  0
 15 16  1  0  0  0  0
 15105  1  0  0  0  0
 16 17  2  0  0  0  0
 16 18  1  0  0  0  0
 18 19  1  0  0  0  0
 18 80  2  0  0  0  0
 19 20  2  0  0  0  0
 19106  1  0  0  0  0
 20 21  1  0  0  0  0
 20107  1  0  0  0  0
 21 22  1  0  0  0  0
 21 79  2  0  0  0  0
 22 23  1  0  0  0  0
 22 73  2  0  0  0  0
 23 24  2  0  0  0  0
 23 78  1  0  0  0  0
 24 25  1  0  0  0  0
 25 26  2  0  0  0  0
 25 77  1  0  0  0  0
 26 27  1  0  0  0  0
 26 38  1  0  0  0  0
 27 28  1  0  0  0  0
 27 36  2  0  0  0  0
 28 29  2  0  0  0  0
 28108  1  0  0  0  0
 29 30  1  0  0  0  0
 29 34  1  0  0  0  0
 30 31  2  0  0  0  0
 30 32  2  0  0  0  0
 30 33  1  0  0  0  0
 34 35  2  0  0  0  0
 34109  1  0  0  0  0
 35 36  1  0  0  0  0
 35110  1  0  0  0  0
 36 37  1  0  0  0  0
 38 39  2  0  0  0  0
 38 42  1  0  0  0  0
 39 40  1  0  0  0  0
 39111  1  0  0  0  0
 40 41  2  0  0  0  0
 40112  1  0  0  0  0
 41 42  1  0  0  0  0
 41 43  1  0  0  0  0
 42113  1  0  0  0  0
 43 44  1  0  0  0  0
 43 55  2  0  0  0  0
 44 45  1  0  0  0  0
 44 53  2  0  0  0  0
 45 46  2  0  0  0  0
 45114  1  0  0  0  0
 46 47  1  0  0  0  0
 46 51  1  0  0  0  0
 47 48  2  0  0  0  0
 47 49  2  0  0  0  0
 47 50  1  0  0  0  0
 51 52  2  0  0  0  0
 51115  1  0  0  0  0
 52 53  1  0  0  0  0
 52116  1  0  0  0  0
 53 54  1  0  0  0  0
 55 56  1  0  0  0  0
 55 76  1  0  0  0  0
 56 57  2  0  0  0  0
 57 58  1  0  0  0  0
 57 75  1  0  0  0  0
 58 59  1  0  0  0  0
 58 70  2  0  0  0  0
 59 60  1  0  0  0  0
 59 68  2  0  0  0  0
 60 61  2  0  0  0  0
 60117  1  0  0  0  0
 61 62  1  0  0  0  0
 61 66  1  0  0  0  0
 62 63  2  0  0  0  0
 62 64  2  0  0  0  0
 62 65  1  0  0  0  0
 66 67  2  0  0  0  0
 66118  1  0  0  0  0
 67 68  1  0  0  0  0
 67119  1  0  0  0  0
 68 69  1  0  0  0  0
 70 71  1  0  0  0  0
 70 74  1  0  0  0  0
 71 72  2  0  0  0  0
 71120  1  0  0  0  0
 72 73  1  0  0  0  0
 72121  1  0  0  0  0
 73 74  1  0  0  0  0
 74122  1  0  0  0  0
 75 76  2  0  0  0  0
 75123  1  0  0  0  0
 76124  1  0  0  0  0
 77 78  2  0  0  0  0
 77125  1  0  0  0  0
 78126  1  0  0  0  0
 79 80  1  0  0  0  0
 79127  1  0  0  0  0
 80128  1  0  0  0  0
 81 82  1  0  0  0  0
 81 86  1  0  0  0  0
 81  8  1  0  0  0  0
 81129  1  1  0  0  0
 82 83  1  0  0  0  0
 82130  1  0  0  0  0
 82131  1  0  0  0  0
 83 84  1  0  0  0  0
 83132  1  0  0  0  0
 83133  1  0  0  0  0
 84 85  1  0  0  0  0
 84134  1  0  0  0  0
 84135  1  0  0  0  0
 85 86  1  0  0  0  0
 85136  1  0  0  0  0
 85137  1  0  0  0  0
 86 87  1  0  0  0  0
 86138  1  6  0  0  0
 87139  1  0  0  0  0
 88140  1  0  0  0  0
M  CHG  3  33  -1  50  -1  65  -1
M  END
$$$$
