5_3_1789
 OpenBabel04152301373D

131141  0  0  0  0  0  0  0  0999 V2000
    1.2166    0.1244   -0.6528 C   0  0  0  0  0  0  0  0  0  0  0  0
    0.3918   -0.9233   -1.1385 O   0  0  0  0  0  0  0  0  0  0  0  0
    0.8207   -2.2164   -1.0764 C   0  0  0  0  0  0  0  0  0  0  0  0
   -0.1388   -3.1497   -1.4661 C   0  0  0  0  0  0  0  0  0  0  0  0
    0.1069   -4.5176   -1.3488 C   0  0  0  0  0  0  0  0  0  0  0  0
    1.2975   -4.9779   -0.7766 C   0  0  0  0  0  0  0  0  0  0  0  0
    1.4681   -6.4157   -0.4823 C   0  0  0  0  0  0  0  0  0  0  0  0
    0.6300   -7.2947    0.1119 C   0  0  0  0  0  0  0  0  0  0  0  0
   -0.9668   -7.0918    0.7664 S   0  0  0  0  0  0  0  0  0  0  0  0
   -0.9586   -5.5204    1.4423 C   0  0  0  0  0  0  0  0  0  0  0  0
   -0.0265   -4.8614    2.0825 N   0  0  0  0  0  0  0  0  0  0  0  0
   -0.6007   -3.6230    2.2474 C   0  0  0  0  0  0  0  0  0  0  0  0
    0.1547   -2.4670    2.7647 C   0  0  0  0  0  0  0  0  0  0  0  0
   -1.8790   -3.5285    1.8526 N   0  0  0  0  0  0  0  0  0  0  0  0
   -2.0723   -4.7484    1.3256 N   0  0  0  0  0  0  0  0  0  0  0  0
    1.0897   -8.7245    0.0387 C   0  0  0  0  0  0  0  0  0  0  0  0
    2.2436   -9.1003    0.2128 O   0  0  0  0  0  0  0  0  0  0  0  0
    0.0540   -9.5261   -0.3478 O   0  0  0  0  0  0  0  0  0  0  0  0
    0.3725  -10.8623   -0.7578 C   0  0  0  0  0  0  0  0  0  0  0  0
    0.5122  -10.9464   -2.2715 C   0  0  0  0  0  0  0  0  0  0  0  0
    1.7271  -10.3577   -2.7370 O   0  0  0  0  0  0  0  0  0  0  0  0
    1.5907   -9.0866   -3.1839 C   0  0  0  0  0  0  0  0  0  0  0  0
    0.7448   -8.2797   -2.8366 O   0  0  0  0  0  0  0  0  0  0  0  0
    2.4754   -8.8727   -4.3370 C   0  0  0  0  0  0  0  0  0  0  0  0
    2.6273   -7.5674   -4.8100 C   0  0  0  0  0  0  0  0  0  0  0  0
    3.1969   -7.3707   -6.0561 C   0  0  0  0  0  0  0  0  0  0  0  0
    3.6005   -8.4783   -6.8163 C   0  0  0  0  0  0  0  0  0  0  0  0
    4.3206   -8.2316   -8.0582 C   0  0  0  0  0  0  0  0  0  0  0  0
    5.6391   -7.5952   -7.8297 C   0  0  0  0  0  0  0  0  0  0  0  0
    6.0080   -6.4032   -8.1591 N   0  0  0  0  0  0  0  0  0  0  0  0
    7.3420   -6.3135   -7.7792 C   0  0  0  0  0  0  0  0  0  0  0  0
    8.2172   -5.5706   -8.5103 C   0  0  0  0  0  0  0  0  0  0  0  0
    9.6156   -6.0595   -8.8689 C   0  0  0  0  0  0  0  0  0  0  0  0
   10.3168   -5.2808   -9.8043 C   0  0  0  0  0  0  0  0  0  0  0  0
   11.3000   -5.8548  -10.6252 C   0  0  0  0  0  0  0  0  0  0  0  0
   11.8170   -4.9164  -12.0809 S   0  0  0  0  0  0  0  0  0  0  0  0
   10.5279   -4.6757  -12.7215 O   0  0  0  0  0  0  0  0  0  0  0  0
   12.4633   -3.7585  -11.4727 O   0  0  0  0  0  0  0  0  0  0  0  0
   12.7082   -5.8389  -12.7777 O   0  5  0  0  0  0  0  0  0  0  0  0
   11.7242   -7.1665  -10.4519 C   0  0  0  0  0  0  0  0  0  0  0  0
   11.1746   -7.8981   -9.4171 C   0  0  0  0  0  0  0  0  0  0  0  0
   10.1402   -7.3555   -8.6486 C   0  0  0  0  0  0  0  0  0  0  0  0
    9.6598   -8.2005   -7.7320 F   0  0  0  0  0  0  0  0  0  0  0  0
    7.5095   -4.5812   -9.3063 C   0  0  0  0  0  0  0  0  0  0  0  0
    6.5855   -3.5912   -9.0180 C   0  0  0  0  0  0  0  0  0  0  0  0
    5.6742   -3.5964  -10.1164 C   0  0  0  0  0  0  0  0  0  0  0  0
    6.1307   -4.5240  -11.0532 C   0  0  0  0  0  0  0  0  0  0  0  0
    7.4256   -4.7644  -10.6708 N   0  0  0  0  0  0  0  0  0  0  0  0
    5.4769   -5.2073  -12.1545 C   0  0  0  0  0  0  0  0  0  0  0  0
    4.1453   -4.6567  -12.6224 C   0  0  0  0  0  0  0  0  0  0  0  0
    2.9078   -5.3351  -12.5502 C   0  0  0  0  0  0  0  0  0  0  0  0
    1.7255   -4.6912  -12.9671 C   0  0  0  0  0  0  0  0  0  0  0  0
    0.1281   -5.5672  -12.9405 S   0  0  0  0  0  0  0  0  0  0  0  0
    0.4349   -6.8643  -13.5307 O   0  0  0  0  0  0  0  0  0  0  0  0
   -0.2035   -5.5739  -11.5179 O   0  0  0  0  0  0  0  0  0  0  0  0
   -0.7388   -4.7164  -13.7591 O   0  5  0  0  0  0  0  0  0  0  0  0
    1.7508   -3.3724  -13.4326 C   0  0  0  0  0  0  0  0  0  0  0  0
    2.9596   -2.6909  -13.4875 C   0  0  0  0  0  0  0  0  0  0  0  0
    4.1336   -3.3320  -13.0971 C   0  0  0  0  0  0  0  0  0  0  0  0
    5.2718   -2.6213  -13.1673 F   0  0  0  0  0  0  0  0  0  0  0  0
    5.9019   -6.4052  -12.6576 C   0  0  0  0  0  0  0  0  0  0  0  0
    5.0134   -7.2811  -13.2604 N   0  0  0  0  0  0  0  0  0  0  0  0
    5.4965   -8.4682  -13.0201 C   0  0  0  0  0  0  0  0  0  0  0  0
    4.6527   -9.6396  -12.6807 C   0  0  0  0  0  0  0  0  0  0  0  0
    4.7159  -10.9388  -13.4123 C   0  0  0  0  0  0  0  0  0  0  0  0
    5.0617  -11.0351  -14.7796 C   0  0  0  0  0  0  0  0  0  0  0  0
    5.3387  -12.2975  -15.3607 C   0  0  0  0  0  0  0  0  0  0  0  0
    5.8855  -12.4282  -17.0965 S   0  0  0  0  0  0  0  0  0  0  0  0
    4.6720  -12.0921  -17.8316 O   0  0  0  0  0  0  0  0  0  0  0  0
    6.9742  -11.4605  -17.1589 O   0  0  0  0  0  0  0  0  0  0  0  0
    6.3063  -13.8256  -17.2169 O   0  5  0  0  0  0  0  0  0  0  0  0
    5.2800  -13.4720  -14.6080 C   0  0  0  0  0  0  0  0  0  0  0  0
    4.9322  -13.3956  -13.2710 C   0  0  0  0  0  0  0  0  0  0  0  0
    4.6674  -12.1536  -12.6908 C   0  0  0  0  0  0  0  0  0  0  0  0
    4.4469  -12.1719  -11.3671 F   0  0  0  0  0  0  0  0  0  0  0  0
    4.0880   -9.3886  -11.4675 C   0  0  0  0  0  0  0  0  0  0  0  0
    2.9269  -10.0047  -10.8426 C   0  0  0  0  0  0  0  0  0  0  0  0
    2.7974   -9.5345   -9.5816 C   0  0  0  0  0  0  0  0  0  0  0  0
    3.9348   -8.6677   -9.2728 C   0  0  0  0  0  0  0  0  0  0  0  0
    4.5486   -8.5163  -10.4836 N   0  0  0  0  0  0  0  0  0  0  0  0
    6.9061   -8.4982  -12.6614 C   0  0  0  0  0  0  0  0  0  0  0  0
    7.1034   -7.1999  -12.4153 C   0  0  0  0  0  0  0  0  0  0  0  0
    7.5580   -7.3842   -6.8480 C   0  0  0  0  0  0  0  0  0  0  0  0
    6.5958   -8.2986   -6.9584 C   0  0  0  0  0  0  0  0  0  0  0  0
    3.5212   -9.7741   -6.3084 C   0  0  0  0  0  0  0  0  0  0  0  0
    2.9640   -9.9713   -5.0600 C   0  0  0  0  0  0  0  0  0  0  0  0
    2.3279   -4.0463   -0.5370 C   0  0  0  0  0  0  0  0  0  0  0  0
    3.5458   -4.5453   -0.1349 O   0  0  0  0  0  0  0  0  0  0  0  0
    4.6822   -3.7376   -0.4345 C   0  0  0  0  0  0  0  0  0  0  0  0
    2.0748   -2.6693   -0.6700 C   0  0  0  0  0  0  0  0  0  0  0  0
    0.7171    1.0615   -0.7840 H   0  0  0  0  0  0  0  0  0  0  0  0
    2.1390    0.1328   -1.1951 H   0  0  0  0  0  0  0  0  0  0  0  0
    1.4156   -0.0312    0.3870 H   0  0  0  0  0  0  0  0  0  0  0  0
   -1.0416   -2.8246   -1.8459 H   0  0  0  0  0  0  0  0  0  0  0  0
   -0.5946   -5.1950   -1.6865 H   0  0  0  0  0  0  0  0  0  0  0  0
    2.3733   -6.8134   -0.7781 H   0  0  0  0  0  0  0  0  0  0  0  0
    1.1482   -2.7741    3.0168 H   0  0  0  0  0  0  0  0  0  0  0  0
   -0.3324   -2.0841    3.6370 H   0  0  0  0  0  0  0  0  0  0  0  0
    0.1964   -1.7041    2.0156 H   0  0  0  0  0  0  0  0  0  0  0  0
   -2.9128   -5.0459    0.9081 H   0  0  0  0  0  0  0  0  0  0  0  0
   -0.4082  -11.5217   -0.4407 H   0  0  0  0  0  0  0  0  0  0  0  0
    1.3034  -11.1444   -0.3120 H   0  0  0  0  0  0  0  0  0  0  0  0
   -0.3127  -10.4352   -2.7221 H   0  0  0  0  0  0  0  0  0  0  0  0
    0.5253  -11.9815   -2.5421 H   0  0  0  0  0  0  0  0  0  0  0  0
    2.3202   -6.7635   -4.2403 H   0  0  0  0  0  0  0  0  0  0  0  0
    3.3239   -6.4148   -6.4237 H   0  0  0  0  0  0  0  0  0  0  0  0
   10.1064   -4.2740   -9.8890 H   0  0  0  0  0  0  0  0  0  0  0  0
   12.4303   -7.5827  -11.0789 H   0  0  0  0  0  0  0  0  0  0  0  0
   11.5277   -8.8457   -9.2111 H   0  0  0  0  0  0  0  0  0  0  0  0
    6.5610   -2.9802   -8.1867 H   0  0  0  0  0  0  0  0  0  0  0  0
    4.8257   -3.0154  -10.2026 H   0  0  0  0  0  0  0  0  0  0  0  0
    8.1659   -5.0226  -11.2662 H   0  0  0  0  0  0  0  0  0  0  0  0
    2.8698   -6.3022  -12.1921 H   0  0  0  0  0  0  0  0  0  0  0  0
    0.8785   -2.9097  -13.7327 H   0  0  0  0  0  0  0  0  0  0  0  0
    2.9883   -1.7131  -13.8163 H   0  0  0  0  0  0  0  0  0  0  0  0
    5.1127  -10.1816  -15.3576 H   0  0  0  0  0  0  0  0  0  0  0  0
    5.4929  -14.3836  -15.0424 H   0  0  0  0  0  0  0  0  0  0  0  0
    4.8686  -14.2552  -12.7036 H   0  0  0  0  0  0  0  0  0  0  0  0
    2.3012  -10.6920  -11.2912 H   0  0  0  0  0  0  0  0  0  0  0  0
    2.0198   -9.7524   -8.9390 H   0  0  0  0  0  0  0  0  0  0  0  0
    5.2543   -7.8495  -10.6467 H   0  0  0  0  0  0  0  0  0  0  0  0
    7.5633   -9.2923  -12.6115 H   0  0  0  0  0  0  0  0  0  0  0  0
    8.0001   -6.8046  -12.0917 H   0  0  0  0  0  0  0  0  0  0  0  0
    8.3478   -7.4380   -6.1860 H   0  0  0  0  0  0  0  0  0  0  0  0
    6.5367   -9.2427   -6.5458 H   0  0  0  0  0  0  0  0  0  0  0  0
    3.8735  -10.5741   -6.8569 H   0  0  0  0  0  0  0  0  0  0  0  0
    2.9074  -10.9215   -4.6613 H   0  0  0  0  0  0  0  0  0  0  0  0
    5.5676   -4.2213   -0.0781 H   0  0  0  0  0  0  0  0  0  0  0  0
    4.5790   -2.7856    0.0430 H   0  0  0  0  0  0  0  0  0  0  0  0
    4.7527   -3.5998   -1.4932 H   0  0  0  0  0  0  0  0  0  0  0  0
    2.8233   -1.9890   -0.4652 H   0  0  0  0  0  0  0  0  0  0  0  0
  1  2  1  0  0  0  0
  1 91  1  0  0  0  0
  1 92  1  0  0  0  0
  1 93  1  0  0  0  0
  2  3  1  0  0  0  0
  3  4  1  0  0  0  0
  3 90  2  0  0  0  0
  4  5  2  0  0  0  0
  4 94  1  0  0  0  0
  5  6  1  0  0  0  0
  5 95  1  0  0  0  0
  6  7  1  0  0  0  0
  6 87  2  0  0  0  0
  7  8  2  0  0  0  0
  7 96  1  0  0  0  0
  8  9  1  0  0  0  0
  8 16  1  0  0  0  0
  9 10  1  0  0  0  0
 10 11  2  0  0  0  0
 10 15  1  0  0  0  0
 11 12  1  0  0  0  0
 12 13  1  0  0  0  0
 12 14  2  0  0  0  0
 13 97  1  0  0  0  0
 13 98  1  0  0  0  0
 13 99  1  0  0  0  0
 14 15  1  0  0  0  0
 15100  1  0  0  0  0
 16 17  2  0  0  0  0
 16 18  1  0  0  0  0
 18 19  1  0  0  0  0
 19 20  1  0  0  0  0
 19101  1  0  0  0  0
 19102  1  0  0  0  0
 20 21  1  0  0  0  0
 20103  1  0  0  0  0
 20104  1  0  0  0  0
 21 22  1  0  0  0  0
 22 23  2  0  0  0  0
 22 24  1  0  0  0  0
 24 25  1  0  0  0  0
 24 86  2  0  0  0  0
 25 26  2  0  0  0  0
 25105  1  0  0  0  0
 26 27  1  0  0  0  0
 26106  1  0  0  0  0
 27 28  1  0  0  0  0
 27 85  2  0  0  0  0
 28 29  1  0  0  0  0
 28 79  2  0  0  0  0
 29 30  2  0  0  0  0
 29 84  1  0  0  0  0
 30 31  1  0  0  0  0
 31 32  2  0  0  0  0
 31 83  1  0  0  0  0
 32 33  1  0  0  0  0
 32 44  1  0  0  0  0
 33 34  1  0  0  0  0
 33 42  2  0  0  0  0
 34 35  2  0  0  0  0
 34107  1  0  0  0  0
 35 36  1  0  0  0  0
 35 40  1  0  0  0  0
 36 37  2  0  0  0  0
 36 38  2  0  0  0  0
 36 39  1  0  0  0  0
 40 41  2  0  0  0  0
 40108  1  0  0  0  0
 41 42  1  0  0  0  0
 41109  1  0  0  0  0
 42 43  1  0  0  0  0
 44 45  2  0  0  0  0
 44 48  1  0  0  0  0
 45 46  1  0  0  0  0
 45110  1  0  0  0  0
 46 47  2  0  0  0  0
 46111  1  0  0  0  0
 47 48  1  0  0  0  0
 47 49  1  0  0  0  0
 48112  1  0  0  0  0
 49 50  1  0  0  0  0
 49 61  2  0  0  0  0
 50 51  1  0  0  0  0
 50 59  2  0  0  0  0
 51 52  2  0  0  0  0
 51113  1  0  0  0  0
 52 53  1  0  0  0  0
 52 57  1  0  0  0  0
 53 54  2  0  0  0  0
 53 55  2  0  0  0  0
 53 56  1  0  0  0  0
 57 58  2  0  0  0  0
 57114  1  0  0  0  0
 58 59  1  0  0  0  0
 58115  1  0  0  0  0
 59 60  1  0  0  0  0
 61 62  1  0  0  0  0
 61 82  1  0  0  0  0
 62 63  2  0  0  0  0
 63 64  1  0  0  0  0
 63 81  1  0  0  0  0
 64 65  1  0  0  0  0
 64 76  2  0  0  0  0
 65 66  1  0  0  0  0
 65 74  2  0  0  0  0
 66 67  2  0  0  0  0
 66116  1  0  0  0  0
 67 68  1  0  0  0  0
 67 72  1  0  0  0  0
 68 69  2  0  0  0  0
 68 70  2  0  0  0  0
 68 71  1  0  0  0  0
 72 73  2  0  0  0  0
 72117  1  0  0  0  0
 73 74  1  0  0  0  0
 73118  1  0  0  0  0
 74 75  1  0  0  0  0
 76 77  1  0  0  0  0
 76 80  1  0  0  0  0
 77 78  2  0  0  0  0
 77119  1  0  0  0  0
 78 79  1  0  0  0  0
 78120  1  0  0  0  0
 79 80  1  0  0  0  0
 80121  1  0  0  0  0
 81 82  2  0  0  0  0
 81122  1  0  0  0  0
 82123  1  0  0  0  0
 83 84  2  0  0  0  0
 83124  1  0  0  0  0
 84125  1  0  0  0  0
 85 86  1  0  0  0  0
 85126  1  0  0  0  0
 86127  1  0  0  0  0
 87 88  1  0  0  0  0
 87 90  1  0  0  0  0
 88 89  1  0  0  0  0
 89128  1  0  0  0  0
 89129  1  0  0  0  0
 89130  1  0  0  0  0
 90131  1  0  0  0  0
M  CHG  3  39  -1  56  -1  71  -1
M  END
$$$$
