5_3_2983
 OpenBabel04152301373D

142154  0  0  1  0  0  0  0  0999 V2000
   -2.3292   -0.2723    0.0039 C   0  0  0  0  0  0  0  0  0  0  0  0
   -0.8542   -0.2056   -0.1408 C   0  0  0  0  0  0  0  0  0  0  0  0
   -0.0722   -1.2325   -0.3968 N   0  0  0  0  0  0  0  0  0  0  0  0
    1.2577   -0.8680   -0.4665 N   0  0  0  0  0  0  0  0  0  0  0  0
    1.4303    0.4151   -0.2470 C   0  0  0  0  0  0  0  0  0  0  0  0
    3.0032    1.1724   -0.1877 S   0  0  0  0  0  0  0  0  0  0  0  0
    4.1050   -0.2600   -0.0209 C   0  0  0  0  0  0  0  0  0  0  0  0
    3.8762   -1.1658    1.1848 C   0  0  0  0  0  0  0  0  0  0  0  0
    3.9655   -2.5218    1.0784 C   0  0  0  0  0  0  0  0  0  0  0  0
    4.3470   -3.2040   -0.2154 C   0  0  0  0  0  0  0  0  0  0  0  0
    3.7482   -4.1288   -0.7327 O   0  0  0  0  0  0  0  0  0  0  0  0
    5.5076   -2.6541   -0.6810 O   0  0  0  0  0  0  0  0  0  0  0  0
    6.0514   -3.2042   -1.9000 C   0  0  0  0  0  0  0  0  0  0  0  0
    7.5732   -3.3497   -1.7870 C   0  0  0  0  0  0  0  0  0  0  0  0
    7.9097   -4.3724   -0.8317 O   0  0  0  0  0  0  0  0  0  0  0  0
    8.0793   -3.9264    0.4348 C   0  0  0  0  0  0  0  0  0  0  0  0
    8.1021   -2.7666    0.8139 O   0  0  0  0  0  0  0  0  0  0  0  0
    7.9869   -5.0653    1.3590 C   0  0  0  0  0  0  0  0  0  0  0  0
    6.8309   -5.1309    2.1302 C   0  0  0  0  0  0  0  0  0  0  0  0
    6.6838   -6.1134    3.1002 C   0  0  0  0  0  0  0  0  0  0  0  0
    7.6955   -7.0525    3.3124 C   0  0  0  0  0  0  0  0  0  0  0  0
    7.5565   -8.0048    4.4477 C   0  0  0  0  0  0  0  0  0  0  0  0
    8.4488   -7.8564    5.6494 C   0  0  0  0  0  0  0  0  0  0  0  0
    8.5617   -8.6209    6.7039 N   0  0  0  0  0  0  0  0  0  0  0  0
    9.5500   -8.0424    7.4917 C   0  0  0  0  0  0  0  0  0  0  0  0
   10.0198   -8.4508    8.6972 C   0  0  0  0  0  0  0  0  0  0  0  0
   11.1747   -7.6752    9.2847 C   0  0  0  0  0  0  0  0  0  0  0  0
   11.0552   -6.3242    9.6521 C   0  0  0  0  0  0  0  0  0  0  0  0
   12.1906   -5.6069   10.0594 C   0  0  0  0  0  0  0  0  0  0  0  0
   12.0629   -3.8034   10.2062 S   0  0  0  0  0  0  0  0  0  0  0  0
   11.6017   -3.4298    8.8704 O   0  0  0  0  0  0  0  0  0  0  0  0
   11.0905   -3.6417   11.2806 O   0  0  0  0  0  0  0  0  0  0  0  0
   13.4264   -3.3868   10.5260 O   0  5  0  0  0  0  0  0  0  0  0  0
   13.4268   -6.2370   10.2209 C   0  0  0  0  0  0  0  0  0  0  0  0
   13.5397   -7.5907    9.9195 C   0  0  0  0  0  0  0  0  0  0  0  0
   12.4337   -8.2862    9.4277 C   0  0  0  0  0  0  0  0  0  0  0  0
   12.6166   -9.5672    9.0706 F   0  0  0  0  0  0  0  0  0  0  0  0
    9.5299   -9.6133    9.3988 C   0  0  0  0  0  0  0  0  0  0  0  0
    9.9457  -10.1238   10.6167 C   0  0  0  0  0  0  0  0  0  0  0  0
    9.2455  -11.3108   10.8586 C   0  0  0  0  0  0  0  0  0  0  0  0
    8.3279  -11.4971    9.8373 C   0  0  0  0  0  0  0  0  0  0  0  0
    8.5162  -10.4502    8.9462 N   0  0  0  0  0  0  0  0  0  0  0  0
    7.3443  -12.5465    9.6925 C   0  0  0  0  0  0  0  0  0  0  0  0
    7.2368  -13.5804   10.7891 C   0  0  0  0  0  0  0  0  0  0  0  0
    7.5315  -14.9372   10.5656 C   0  0  0  0  0  0  0  0  0  0  0  0
    7.3637  -15.8697   11.6017 C   0  0  0  0  0  0  0  0  0  0  0  0
    7.5713  -17.6341   11.2333 S   0  0  0  0  0  0  0  0  0  0  0  0
    6.5832  -17.8438   10.1802 O   0  0  0  0  0  0  0  0  0  0  0  0
    8.9690  -17.7051   10.8199 O   0  0  0  0  0  0  0  0  0  0  0  0
    7.2693  -18.2886   12.5054 O   0  5  0  0  0  0  0  0  0  0  0  0
    6.9780  -15.4665   12.8829 C   0  0  0  0  0  0  0  0  0  0  0  0
    6.7223  -14.1199   13.1223 C   0  0  0  0  0  0  0  0  0  0  0  0
    6.8287  -13.1980   12.0801 C   0  0  0  0  0  0  0  0  0  0  0  0
    6.5334  -11.9168   12.3525 F   0  0  0  0  0  0  0  0  0  0  0  0
    6.4670  -12.6434    8.6605 C   0  0  0  0  0  0  0  0  0  0  0  0
    6.3149  -11.8118    7.5537 N   0  0  0  0  0  0  0  0  0  0  0  0
    5.3368  -12.3301    6.8465 C   0  0  0  0  0  0  0  0  0  0  0  0
    4.7271  -11.8326    5.5584 C   0  0  0  0  0  0  0  0  0  0  0  0
    3.6480  -12.6076    4.8765 C   0  0  0  0  0  0  0  0  0  0  0  0
    2.3941  -12.8070    5.4753 C   0  0  0  0  0  0  0  0  0  0  0  0
    1.4392  -13.6212    4.8433 C   0  0  0  0  0  0  0  0  0  0  0  0
   -0.0960  -14.0137    5.7274 S   0  0  0  0  0  0  0  0  0  0  0  0
    0.4125  -14.6641    6.9298 O   0  0  0  0  0  0  0  0  0  0  0  0
   -0.6875  -12.6932    5.9129 O   0  0  0  0  0  0  0  0  0  0  0  0
   -0.8095  -14.8893    4.7996 O   0  5  0  0  0  0  0  0  0  0  0  0
    1.6812  -14.1861    3.5888 C   0  0  0  0  0  0  0  0  0  0  0  0
    2.9083  -13.9666    2.9735 C   0  0  0  0  0  0  0  0  0  0  0  0
    3.8826  -13.2108    3.6260 C   0  0  0  0  0  0  0  0  0  0  0  0
    5.0687  -13.0662    3.0131 F   0  0  0  0  0  0  0  0  0  0  0  0
    5.2273  -10.7167    4.9887 C   0  0  0  0  0  0  0  0  0  0  0  0
    4.7698  -10.1307    3.7320 C   0  0  0  0  0  0  0  0  0  0  0  0
    5.5861   -9.1198    3.3932 C   0  0  0  0  0  0  0  0  0  0  0  0
    6.5843   -8.9382    4.4488 C   0  0  0  0  0  0  0  0  0  0  0  0
    6.2687   -9.9038    5.3729 N   0  0  0  0  0  0  0  0  0  0  0  0
    4.7796  -13.5668    7.4099 C   0  0  0  0  0  0  0  0  0  0  0  0
    5.4748  -13.6904    8.5312 C   0  0  0  0  0  0  0  0  0  0  0  0
   10.0205   -6.8735    6.7772 C   0  0  0  0  0  0  0  0  0  0  0  0
    9.3348   -6.6829    5.6604 C   0  0  0  0  0  0  0  0  0  0  0  0
    8.8501   -7.0006    2.5076 C   0  0  0  0  0  0  0  0  0  0  0  0
    9.0032   -6.0012    1.5328 C   0  0  0  0  0  0  0  0  0  0  0  0
    3.7253   -3.3126    2.1633 N   0  0  0  0  0  0  0  0  0  0  0  0
    3.4676   -4.6076    2.4456 C   0  0  0  0  0  0  0  0  0  0  0  0
    3.3388   -5.5936    1.7647 O   0  0  0  0  0  0  0  0  0  0  0  0
    3.4405   -4.2817    3.9773 C   0  0  2  0  0  0  0  0  0  0  0  0
    2.1463   -4.4901    4.6596 N   0  0  0  0  0  0  0  0  0  0  0  0
    1.9121   -5.1916    5.8221 C   0  0  0  0  0  0  0  0  0  0  0  0
    0.7538   -5.4845    6.1085 O   0  0  0  0  0  0  0  0  0  0  0  0
    3.0350   -5.5430    6.6722 C   0  0  0  0  0  0  0  0  0  0  0  0
    4.0425   -4.7082    7.1306 C   0  0  0  0  0  0  0  0  0  0  0  0
    4.8263   -5.4652    7.9529 N   0  0  0  0  0  0  0  0  0  0  0  0
    5.9919   -5.0449    8.6952 C   0  0  0  0  0  0  0  0  0  0  0  0
    4.4020   -6.7271    8.0706 N   0  0  0  0  0  0  0  0  0  0  0  0
    3.3112   -6.7923    7.2977 C   0  0  0  0  0  0  0  0  0  0  0  0
    2.5805   -8.0817    7.1888 C   0  0  0  0  0  0  0  0  0  0  0  0
    3.8417   -2.8533    3.5310 C   0  0  2  0  0  0  0  0  0  0  0  0
    2.6751   -1.4972    3.7209 S   0  0  0  0  0  0  0  0  0  0  0  0
    3.5544   -0.4648    2.5019 C   0  0  0  0  0  0  0  0  0  0  0  0
   -0.0217    1.2895    0.0088 S   0  0  0  0  0  0  0  0  0  0  0  0
   -2.6546   -1.2838   -0.1223 H   0  0  0  0  0  0  0  0  0  0  0  0
   -2.7888    0.3456   -0.7390 H   0  0  0  0  0  0  0  0  0  0  0  0
   -2.6081    0.0732    0.9774 H   0  0  0  0  0  0  0  0  0  0  0  0
    5.1081    0.1079    0.0361 H   0  0  0  0  0  0  0  0  0  0  0  0
    3.9002   -0.8721   -0.8743 H   0  0  0  0  0  0  0  0  0  0  0  0
    5.8190   -2.5520   -2.7158 H   0  0  0  0  0  0  0  0  0  0  0  0
    5.6215   -4.1696   -2.0678 H   0  0  0  0  0  0  0  0  0  0  0  0
    7.9938   -2.4185   -1.4695 H   0  0  0  0  0  0  0  0  0  0  0  0
    7.9676   -3.6243   -2.7430 H   0  0  0  0  0  0  0  0  0  0  0  0
    6.0761   -4.4433    1.9800 H   0  0  0  0  0  0  0  0  0  0  0  0
    5.8224   -6.1499    3.6673 H   0  0  0  0  0  0  0  0  0  0  0  0
   10.1339   -5.8601    9.6225 H   0  0  0  0  0  0  0  0  0  0  0  0
   14.2447   -5.7061   10.5589 H   0  0  0  0  0  0  0  0  0  0  0  0
   14.4381   -8.0790   10.0591 H   0  0  0  0  0  0  0  0  0  0  0  0
   10.6515   -9.7011   11.2397 H   0  0  0  0  0  0  0  0  0  0  0  0
    9.3885  -11.9416   11.6627 H   0  0  0  0  0  0  0  0  0  0  0  0
    8.0061  -10.3191    8.1144 H   0  0  0  0  0  0  0  0  0  0  0  0
    7.8706  -15.2470    9.6414 H   0  0  0  0  0  0  0  0  0  0  0  0
    6.8840  -16.1590   13.6422 H   0  0  0  0  0  0  0  0  0  0  0  0
    6.4548  -13.8039   14.0676 H   0  0  0  0  0  0  0  0  0  0  0  0
    2.1742  -12.3567    6.3775 H   0  0  0  0  0  0  0  0  0  0  0  0
    0.9587  -14.7587    3.1250 H   0  0  0  0  0  0  0  0  0  0  0  0
    3.0976  -14.3608    2.0387 H   0  0  0  0  0  0  0  0  0  0  0  0
    3.9492  -10.4438    3.1901 H   0  0  0  0  0  0  0  0  0  0  0  0
    5.5205   -8.5609    2.5281 H   0  0  0  0  0  0  0  0  0  0  0  0
    6.7430  -10.0048    6.2297 H   0  0  0  0  0  0  0  0  0  0  0  0
    4.0402  -14.1792    7.0315 H   0  0  0  0  0  0  0  0  0  0  0  0
    5.3276  -14.4394    9.2257 H   0  0  0  0  0  0  0  0  0  0  0  0
   10.7915   -6.2668    7.0975 H   0  0  0  0  0  0  0  0  0  0  0  0
    9.4041   -5.9127    4.9770 H   0  0  0  0  0  0  0  0  0  0  0  0
    9.5928   -7.7056    2.6357 H   0  0  0  0  0  0  0  0  0  0  0  0
    9.8565   -5.9610    0.9537 H   0  0  0  0  0  0  0  0  0  0  0  0
    3.9958   -4.8123    4.7223 H   0  0  0  0  0  0  0  0  0  0  0  0
    1.3593   -4.0796    4.2336 H   0  0  0  0  0  0  0  0  0  0  0  0
    4.1739   -3.7117    6.8965 H   0  0  0  0  0  0  0  0  0  0  0  0
    6.1938   -4.0146    8.4888 H   0  0  0  0  0  0  0  0  0  0  0  0
    6.8333   -5.6385    8.4042 H   0  0  0  0  0  0  0  0  0  0  0  0
    5.8121   -5.1703    9.7425 H   0  0  0  0  0  0  0  0  0  0  0  0
    1.7402   -7.9615    6.5374 H   0  0  0  0  0  0  0  0  0  0  0  0
    2.2405   -8.3820    8.1579 H   0  0  0  0  0  0  0  0  0  0  0  0
    3.2347   -8.8300    6.7926 H   0  0  0  0  0  0  0  0  0  0  0  0
    4.7004   -2.4314    4.0102 H   0  0  0  0  0  0  0  0  0  0  0  0
    2.9445    0.3873    2.2854 H   0  0  0  0  0  0  0  0  0  0  0  0
    4.4941   -0.2089    2.9450 H   0  0  0  0  0  0  0  0  0  0  0  0
  1  2  1  0  0  0  0
  1 99  1  0  0  0  0
  1100  1  0  0  0  0
  1101  1  0  0  0  0
  2  3  2  0  0  0  0
  2 98  1  0  0  0  0
  3  4  1  0  0  0  0
  4  5  2  0  0  0  0
  5  6  1  0  0  0  0
  5 98  1  0  0  0  0
  6  7  1  0  0  0  0
  7  8  1  0  0  0  0
  7102  1  0  0  0  0
  7103  1  0  0  0  0
  8  9  2  0  0  0  0
  8 97  1  0  0  0  0
  9 10  1  0  0  0  0
  9 81  1  0  0  0  0
 10 11  2  0  0  0  0
 10 12  1  0  0  0  0
 12 13  1  0  0  0  0
 13 14  1  0  0  0  0
 13104  1  0  0  0  0
 13105  1  0  0  0  0
 14 15  1  0  0  0  0
 14106  1  0  0  0  0
 14107  1  0  0  0  0
 15 16  1  0  0  0  0
 16 17  2  0  0  0  0
 16 18  1  0  0  0  0
 18 19  1  0  0  0  0
 18 80  2  0  0  0  0
 19 20  2  0  0  0  0
 19108  1  0  0  0  0
 20 21  1  0  0  0  0
 20109  1  0  0  0  0
 21 22  1  0  0  0  0
 21 79  2  0  0  0  0
 22 23  1  0  0  0  0
 22 73  2  0  0  0  0
 23 24  2  0  0  0  0
 23 78  1  0  0  0  0
 24 25  1  0  0  0  0
 25 26  2  0  0  0  0
 25 77  1  0  0  0  0
 26 27  1  0  0  0  0
 26 38  1  0  0  0  0
 27 28  1  0  0  0  0
 27 36  2  0  0  0  0
 28 29  2  0  0  0  0
 28110  1  0  0  0  0
 29 30  1  0  0  0  0
 29 34  1  0  0  0  0
 30 31  2  0  0  0  0
 30 32  2  0  0  0  0
 30 33  1  0  0  0  0
 34 35  2  0  0  0  0
 34111  1  0  0  0  0
 35 36  1  0  0  0  0
 35112  1  0  0  0  0
 36 37  1  0  0  0  0
 38 39  2  0  0  0  0
 38 42  1  0  0  0  0
 39 40  1  0  0  0  0
 39113  1  0  0  0  0
 40 41  2  0  0  0  0
 40114  1  0  0  0  0
 41 42  1  0  0  0  0
 41 43  1  0  0  0  0
 42115  1  0  0  0  0
 43 44  1  0  0  0  0
 43 55  2  0  0  0  0
 44 45  1  0  0  0  0
 44 53  2  0  0  0  0
 45 46  2  0  0  0  0
 45116  1  0  0  0  0
 46 47  1  0  0  0  0
 46 51  1  0  0  0  0
 47 48  2  0  0  0  0
 47 49  2  0  0  0  0
 47 50  1  0  0  0  0
 51 52  2  0  0  0  0
 51117  1  0  0  0  0
 52 53  1  0  0  0  0
 52118  1  0  0  0  0
 53 54  1  0  0  0  0
 55 56  1  0  0  0  0
 55 76  1  0  0  0  0
 56 57  2  0  0  0  0
 57 58  1  0  0  0  0
 57 75  1  0  0  0  0
 58 59  1  0  0  0  0
 58 70  2  0  0  0  0
 59 60  1  0  0  0  0
 59 68  2  0  0  0  0
 60 61  2  0  0  0  0
 60119  1  0  0  0  0
 61 62  1  0  0  0  0
 61 66  1  0  0  0  0
 62 63  2  0  0  0  0
 62 64  2  0  0  0  0
 62 65  1  0  0  0  0
 66 67  2  0  0  0  0
 66120  1  0  0  0  0
 67 68  1  0  0  0  0
 67121  1  0  0  0  0
 68 69  1  0  0  0  0
 70 71  1  0  0  0  0
 70 74  1  0  0  0  0
 71 72  2  0  0  0  0
 71122  1  0  0  0  0
 72 73  1  0  0  0  0
 72123  1  0  0  0  0
 73 74  1  0  0  0  0
 74124  1  0  0  0  0
 75 76  2  0  0  0  0
 75125  1  0  0  0  0
 76126  1  0  0  0  0
 77 78  2  0  0  0  0
 77127  1  0  0  0  0
 78128  1  0  0  0  0
 79 80  1  0  0  0  0
 79129  1  0  0  0  0
 80130  1  0  0  0  0
 81 82  1  0  0  0  0
 81 95  1  0  0  0  0
 82 83  2  0  0  0  0
 82 84  1  0  0  0  0
 84 85  1  0  0  0  0
 84 95  1  0  0  0  0
 84131  1  1  0  0  0
 85 86  1  0  0  0  0
 85132  1  0  0  0  0
 86 87  2  0  0  0  0
 86 88  1  0  0  0  0
 88 89  2  0  0  0  0
 88 93  1  0  0  0  0
 89 90  1  0  0  0  0
 89133  1  0  0  0  0
 90 91  1  0  0  0  0
 90 92  1  0  0  0  0
 91134  1  0  0  0  0
 91135  1  0  0  0  0
 91136  1  0  0  0  0
 92 93  2  0  0  0  0
 93 94  1  0  0  0  0
 94137  1  0  0  0  0
 94138  1  0  0  0  0
 94139  1  0  0  0  0
 95 96  1  0  0  0  0
 95140  1  1  0  0  0
 96 97  1  0  0  0  0
 97141  1  0  0  0  0
 97142  1  0  0  0  0
M  CHG  3  33  -1  50  -1  65  -1
M  END
$$$$
