5_3_3984
 OpenBabel04152301373D

132142  0  0  0  0  0  0  0  0999 V2000
    0.1532    0.0242    0.5537 N   0  0  0  0  0  0  0  0  0  0  0  0
    0.0580    1.3811    0.5989 C   0  0  0  0  0  0  0  0  0  0  0  0
   -1.0540    1.9042    0.6070 O   0  0  0  0  0  0  0  0  0  0  0  0
    1.3636    2.1748    0.7409 C   0  0  2  0  0  0  0  0  0  0  0  0
    1.1602    3.6295    0.2976 C   0  0  0  0  0  0  0  0  0  0  0  0
    0.9346    3.7105   -1.2144 C   0  0  0  0  0  0  0  0  0  0  0  0
    2.0025    3.0678   -1.9953 N   0  3  2  0  0  0  0  0  0  0  0  0
    1.7509    3.1415   -3.4594 C   0  0  0  0  0  0  0  0  0  0  0  0
    0.4239    2.5496   -3.9044 C   0  0  0  0  0  0  0  0  0  0  0  0
    0.3124    1.1745   -4.1314 C   0  0  0  0  0  0  0  0  0  0  0  0
   -0.9454    0.5839   -4.2122 C   0  0  0  0  0  0  0  0  0  0  0  0
   -2.1074    1.3662   -4.1579 C   0  0  0  0  0  0  0  0  0  0  0  0
   -3.4202    0.6690   -4.1700 C   0  0  0  0  0  0  0  0  0  0  0  0
   -3.5443   -0.5043   -3.8825 O   0  0  0  0  0  0  0  0  0  0  0  0
   -4.4035    1.4981   -4.6080 O   0  0  0  0  0  0  0  0  0  0  0  0
   -5.6879    0.8800   -4.8097 C   0  0  0  0  0  0  0  0  0  0  0  0
   -5.9414    0.6429   -6.2977 C   0  0  0  0  0  0  0  0  0  0  0  0
   -5.0035   -0.3180   -6.8184 O   0  0  0  0  0  0  0  0  0  0  0  0
   -4.0656    0.1788   -7.6590 C   0  0  0  0  0  0  0  0  0  0  0  0
   -3.9729    1.3233   -8.0708 O   0  0  0  0  0  0  0  0  0  0  0  0
   -3.0892   -0.8703   -7.9937 C   0  0  0  0  0  0  0  0  0  0  0  0
   -2.1646   -1.2483   -7.0272 C   0  0  0  0  0  0  0  0  0  0  0  0
   -1.0791   -2.0524   -7.3621 C   0  0  0  0  0  0  0  0  0  0  0  0
   -0.9692   -2.6054   -8.6446 C   0  0  0  0  0  0  0  0  0  0  0  0
    0.1714   -3.5131   -8.9802 C   0  0  0  0  0  0  0  0  0  0  0  0
    1.0800   -3.2002  -10.1452 C   0  0  0  0  0  0  0  0  0  0  0  0
    1.9979   -3.9485  -10.7032 N   0  0  0  0  0  0  0  0  0  0  0  0
    2.4878   -3.2173  -11.7823 C   0  0  0  0  0  0  0  0  0  0  0  0
    3.4451   -3.5673  -12.6772 C   0  0  0  0  0  0  0  0  0  0  0  0
    3.7010   -2.6459  -13.8464 C   0  0  0  0  0  0  0  0  0  0  0  0
    4.2775   -1.3740  -13.6969 C   0  0  0  0  0  0  0  0  0  0  0  0
    4.4913   -0.5670  -14.8272 C   0  0  0  0  0  0  0  0  0  0  0  0
    5.0565    1.1401  -14.5880 S   0  0  0  0  0  0  0  0  0  0  0  0
    3.9676    1.7032  -13.7938 O   0  0  0  0  0  0  0  0  0  0  0  0
    6.3259    0.9587  -13.8935 O   0  0  0  0  0  0  0  0  0  0  0  0
    5.1601    1.6620  -15.9494 O   0  5  0  0  0  0  0  0  0  0  0  0
    4.2141   -1.0322  -16.1158 C   0  0  0  0  0  0  0  0  0  0  0  0
    3.6668   -2.3007  -16.2741 C   0  0  0  0  0  0  0  0  0  0  0  0
    3.3907   -3.0798  -15.1499 C   0  0  0  0  0  0  0  0  0  0  0  0
    2.8204   -4.2785  -15.3519 F   0  0  0  0  0  0  0  0  0  0  0  0
    4.1960   -4.7992  -12.6134 C   0  0  0  0  0  0  0  0  0  0  0  0
    5.2215   -5.2233  -13.4423 C   0  0  0  0  0  0  0  0  0  0  0  0
    5.5990   -6.5117  -13.0518 C   0  0  0  0  0  0  0  0  0  0  0  0
    4.8691   -6.8602  -11.9276 C   0  0  0  0  0  0  0  0  0  0  0  0
    4.0078   -5.8030  -11.6734 N   0  0  0  0  0  0  0  0  0  0  0  0
    4.9515   -8.0686  -11.1440 C   0  0  0  0  0  0  0  0  0  0  0  0
    5.9368   -9.1319  -11.5614 C   0  0  0  0  0  0  0  0  0  0  0  0
    5.5139  -10.4015  -11.9923 C   0  0  0  0  0  0  0  0  0  0  0  0
    6.4635  -11.3915  -12.2847 C   0  0  0  0  0  0  0  0  0  0  0  0
    5.8863  -13.0755  -12.6314 S   0  0  0  0  0  0  0  0  0  0  0  0
    5.1681  -13.4078  -11.4053 O   0  0  0  0  0  0  0  0  0  0  0  0
    5.0626  -12.8854  -13.8209 O   0  0  0  0  0  0  0  0  0  0  0  0
    7.1230  -13.8241  -12.8484 O   0  5  0  0  0  0  0  0  0  0  0  0
    7.8328  -11.1168  -12.2371 C   0  0  0  0  0  0  0  0  0  0  0  0
    8.2583   -9.8474  -11.8563 C   0  0  0  0  0  0  0  0  0  0  0  0
    7.3186   -8.8796  -11.5002 C   0  0  0  0  0  0  0  0  0  0  0  0
    7.7783   -7.6861  -11.0913 F   0  0  0  0  0  0  0  0  0  0  0  0
    4.2344   -8.3059  -10.0168 C   0  0  0  0  0  0  0  0  0  0  0  0
    3.2913   -7.4990   -9.3868 N   0  0  0  0  0  0  0  0  0  0  0  0
    2.8614   -8.1921   -8.3578 C   0  0  0  0  0  0  0  0  0  0  0  0
    1.8422   -7.8077   -7.3152 C   0  0  0  0  0  0  0  0  0  0  0  0
    1.4593   -8.7742   -6.2405 C   0  0  0  0  0  0  0  0  0  0  0  0
    2.4071   -9.2496   -5.3205 C   0  0  0  0  0  0  0  0  0  0  0  0
    2.0567  -10.2632   -4.4140 C   0  0  0  0  0  0  0  0  0  0  0  0
    3.3682  -11.0283   -3.4209 S   0  0  0  0  0  0  0  0  0  0  0  0
    4.3156  -11.4421   -4.4496 O   0  0  0  0  0  0  0  0  0  0  0  0
    3.7879   -9.9195   -2.5704 O   0  0  0  0  0  0  0  0  0  0  0  0
    2.6801  -12.1169   -2.7305 O   0  5  0  0  0  0  0  0  0  0  0  0
    0.7519  -10.7550   -4.3424 C   0  0  0  0  0  0  0  0  0  0  0  0
   -0.2072  -10.2542   -5.2153 C   0  0  0  0  0  0  0  0  0  0  0  0
    0.1562   -9.3027   -6.1691 C   0  0  0  0  0  0  0  0  0  0  0  0
   -0.7914   -8.8973   -7.0298 F   0  0  0  0  0  0  0  0  0  0  0  0
    1.2235   -6.6141   -7.4253 C   0  0  0  0  0  0  0  0  0  0  0  0
    0.1621   -6.1447   -6.5449 C   0  0  0  0  0  0  0  0  0  0  0  0
   -0.3633   -5.0215   -7.0545 C   0  0  0  0  0  0  0  0  0  0  0  0
    0.4022   -4.6189   -8.2383 C   0  0  0  0  0  0  0  0  0  0  0  0
    1.3465   -5.6116   -8.3633 N   0  0  0  0  0  0  0  0  0  0  0  0
    3.4685   -9.5234   -8.2327 C   0  0  0  0  0  0  0  0  0  0  0  0
    4.3323   -9.5205   -9.2358 C   0  0  0  0  0  0  0  0  0  0  0  0
    1.7653   -1.9632  -11.7987 C   0  0  0  0  0  0  0  0  0  0  0  0
    0.9278   -1.8781  -10.7735 C   0  0  0  0  0  0  0  0  0  0  0  0
   -1.9542   -2.2740   -9.5958 C   0  0  0  0  0  0  0  0  0  0  0  0
   -2.9844   -1.3722   -9.2879 C   0  0  0  0  0  0  0  0  0  0  0  0
   -2.0002    2.7534   -4.0501 C   0  0  0  0  0  0  0  0  0  0  0  0
   -0.7387    3.3406   -3.9256 C   0  0  0  0  0  0  0  0  0  0  0  0
    2.2907    1.6968   -1.5569 C   0  0  0  0  0  0  0  0  0  0  0  0
    2.5461    1.6127   -0.0519 C   0  0  0  0  0  0  0  0  0  0  0  0
   -0.6598   -0.5236    0.4632 H   0  0  0  0  0  0  0  0  0  0  0  0
    1.0351   -0.4096    0.6115 H   0  0  0  0  0  0  0  0  0  0  0  0
    1.6072    2.1012    1.7802 H   0  0  0  0  0  0  0  0  0  0  0  0
    2.0291    4.1990    0.5536 H   0  0  0  0  0  0  0  0  0  0  0  0
    0.2978    4.0221    0.7946 H   0  0  0  0  0  0  0  0  0  0  0  0
    0.8814    4.7416   -1.4954 H   0  0  0  0  0  0  0  0  0  0  0  0
    0.0258    3.1878   -1.4285 H   0  0  0  0  0  0  0  0  0  0  0  0
    2.8470    3.6084   -1.8083 H   0  0  0  0  0  0  0  0  0  0  0  0
    2.5360    2.6141   -3.9598 H   0  0  0  0  0  0  0  0  0  0  0  0
    1.7178    4.1814   -3.7092 H   0  0  0  0  0  0  0  0  0  0  0  0
    1.1617    0.5981   -4.2389 H   0  0  0  0  0  0  0  0  0  0  0  0
   -1.0233   -0.4402   -4.3131 H   0  0  0  0  0  0  0  0  0  0  0  0
   -6.4516    1.5203   -4.4203 H   0  0  0  0  0  0  0  0  0  0  0  0
   -5.7014   -0.0621   -4.3025 H   0  0  0  0  0  0  0  0  0  0  0  0
   -5.8302    1.5666   -6.8261 H   0  0  0  0  0  0  0  0  0  0  0  0
   -6.9340    0.2644   -6.4253 H   0  0  0  0  0  0  0  0  0  0  0  0
   -2.2840   -0.9300   -6.0528 H   0  0  0  0  0  0  0  0  0  0  0  0
   -0.3482   -2.2431   -6.6590 H   0  0  0  0  0  0  0  0  0  0  0  0
    4.5433   -1.0331  -12.7598 H   0  0  0  0  0  0  0  0  0  0  0  0
    4.4130   -0.4421  -16.9388 H   0  0  0  0  0  0  0  0  0  0  0  0
    3.4657   -2.6643  -17.2188 H   0  0  0  0  0  0  0  0  0  0  0  0
    5.6362   -4.6808  -14.2161 H   0  0  0  0  0  0  0  0  0  0  0  0
    6.3024   -7.1028  -13.5217 H   0  0  0  0  0  0  0  0  0  0  0  0
    3.3581   -5.7695  -10.9344 H   0  0  0  0  0  0  0  0  0  0  0  0
    4.5071  -10.6046  -12.0932 H   0  0  0  0  0  0  0  0  0  0  0  0
    8.5205  -11.8465  -12.4814 H   0  0  0  0  0  0  0  0  0  0  0  0
    9.2654   -9.6229  -11.8374 H   0  0  0  0  0  0  0  0  0  0  0  0
    3.3604   -8.8546   -5.3104 H   0  0  0  0  0  0  0  0  0  0  0  0
    0.5030  -11.4799   -3.6513 H   0  0  0  0  0  0  0  0  0  0  0  0
   -1.1832  -10.5845   -5.1582 H   0  0  0  0  0  0  0  0  0  0  0  0
   -0.1372   -6.6029   -5.6700 H   0  0  0  0  0  0  0  0  0  0  0  0
   -1.1796   -4.5185   -6.6729 H   0  0  0  0  0  0  0  0  0  0  0  0
    2.0445   -5.6064   -9.0575 H   0  0  0  0  0  0  0  0  0  0  0  0
    3.2730  -10.2663   -7.5436 H   0  0  0  0  0  0  0  0  0  0  0  0
    4.9926  -10.2880   -9.4358 H   0  0  0  0  0  0  0  0  0  0  0  0
    1.8861   -1.2303  -12.5151 H   0  0  0  0  0  0  0  0  0  0  0  0
    0.3257   -1.0894  -10.4900 H   0  0  0  0  0  0  0  0  0  0  0  0
   -1.9175   -2.7014  -10.5344 H   0  0  0  0  0  0  0  0  0  0  0  0
   -3.6582   -1.0837  -10.0144 H   0  0  0  0  0  0  0  0  0  0  0  0
   -2.8478    3.3420   -4.0623 H   0  0  0  0  0  0  0  0  0  0  0  0
   -0.6590    4.3666   -3.8483 H   0  0  0  0  0  0  0  0  0  0  0  0
    3.1591    1.3452   -2.0738 H   0  0  0  0  0  0  0  0  0  0  0  0
    1.4346    1.0945   -1.7787 H   0  0  0  0  0  0  0  0  0  0  0  0
    2.6941    0.5886    0.2206 H   0  0  0  0  0  0  0  0  0  0  0  0
    3.4153    2.1929    0.1778 H   0  0  0  0  0  0  0  0  0  0  0  0
  1  2  1  0  0  0  0
  1 88  1  0  0  0  0
  1 89  1  0  0  0  0
  2  3  2  0  0  0  0
  2  4  1  0  0  0  0
  4  5  1  0  0  0  0
  4 87  1  0  0  0  0
  4 90  1  1  0  0  0
  5  6  1  0  0  0  0
  5 91  1  0  0  0  0
  5 92  1  0  0  0  0
  6  7  1  0  0  0  0
  6 93  1  0  0  0  0
  6 94  1  0  0  0  0
  7  8  1  0  0  0  0
  7 86  1  0  0  0  0
  7 95  1  1  0  0  0
  8  9  1  0  0  0  0
  8 96  1  0  0  0  0
  8 97  1  0  0  0  0
  9 10  1  0  0  0  0
  9 85  2  0  0  0  0
 10 11  2  0  0  0  0
 10 98  1  0  0  0  0
 11 12  1  0  0  0  0
 11 99  1  0  0  0  0
 12 13  1  0  0  0  0
 12 84  2  0  0  0  0
 13 14  2  0  0  0  0
 13 15  1  0  0  0  0
 15 16  1  0  0  0  0
 16 17  1  0  0  0  0
 16100  1  0  0  0  0
 16101  1  0  0  0  0
 17 18  1  0  0  0  0
 17102  1  0  0  0  0
 17103  1  0  0  0  0
 18 19  1  0  0  0  0
 19 20  2  0  0  0  0
 19 21  1  0  0  0  0
 21 22  1  0  0  0  0
 21 83  2  0  0  0  0
 22 23  2  0  0  0  0
 22104  1  0  0  0  0
 23 24  1  0  0  0  0
 23105  1  0  0  0  0
 24 25  1  0  0  0  0
 24 82  2  0  0  0  0
 25 26  1  0  0  0  0
 25 76  2  0  0  0  0
 26 27  2  0  0  0  0
 26 81  1  0  0  0  0
 27 28  1  0  0  0  0
 28 29  2  0  0  0  0
 28 80  1  0  0  0  0
 29 30  1  0  0  0  0
 29 41  1  0  0  0  0
 30 31  1  0  0  0  0
 30 39  2  0  0  0  0
 31 32  2  0  0  0  0
 31106  1  0  0  0  0
 32 33  1  0  0  0  0
 32 37  1  0  0  0  0
 33 34  2  0  0  0  0
 33 35  2  0  0  0  0
 33 36  1  0  0  0  0
 37 38  2  0  0  0  0
 37107  1  0  0  0  0
 38 39  1  0  0  0  0
 38108  1  0  0  0  0
 39 40  1  0  0  0  0
 41 42  2  0  0  0  0
 41 45  1  0  0  0  0
 42 43  1  0  0  0  0
 42109  1  0  0  0  0
 43 44  2  0  0  0  0
 43110  1  0  0  0  0
 44 45  1  0  0  0  0
 44 46  1  0  0  0  0
 45111  1  0  0  0  0
 46 47  1  0  0  0  0
 46 58  2  0  0  0  0
 47 48  1  0  0  0  0
 47 56  2  0  0  0  0
 48 49  2  0  0  0  0
 48112  1  0  0  0  0
 49 50  1  0  0  0  0
 49 54  1  0  0  0  0
 50 51  2  0  0  0  0
 50 52  2  0  0  0  0
 50 53  1  0  0  0  0
 54 55  2  0  0  0  0
 54113  1  0  0  0  0
 55 56  1  0  0  0  0
 55114  1  0  0  0  0
 56 57  1  0  0  0  0
 58 59  1  0  0  0  0
 58 79  1  0  0  0  0
 59 60  2  0  0  0  0
 60 61  1  0  0  0  0
 60 78  1  0  0  0  0
 61 62  1  0  0  0  0
 61 73  2  0  0  0  0
 62 63  1  0  0  0  0
 62 71  2  0  0  0  0
 63 64  2  0  0  0  0
 63115  1  0  0  0  0
 64 65  1  0  0  0  0
 64 69  1  0  0  0  0
 65 66  2  0  0  0  0
 65 67  2  0  0  0  0
 65 68  1  0  0  0  0
 69 70  2  0  0  0  0
 69116  1  0  0  0  0
 70 71  1  0  0  0  0
 70117  1  0  0  0  0
 71 72  1  0  0  0  0
 73 74  1  0  0  0  0
 73 77  1  0  0  0  0
 74 75  2  0  0  0  0
 74118  1  0  0  0  0
 75 76  1  0  0  0  0
 75119  1  0  0  0  0
 76 77  1  0  0  0  0
 77120  1  0  0  0  0
 78 79  2  0  0  0  0
 78121  1  0  0  0  0
 79122  1  0  0  0  0
 80 81  2  0  0  0  0
 80123  1  0  0  0  0
 81124  1  0  0  0  0
 82 83  1  0  0  0  0
 82125  1  0  0  0  0
 83126  1  0  0  0  0
 84 85  1  0  0  0  0
 84127  1  0  0  0  0
 85128  1  0  0  0  0
 86 87  1  0  0  0  0
 86129  1  0  0  0  0
 86130  1  0  0  0  0
 87131  1  0  0  0  0
 87132  1  0  0  0  0
M  CHG  4   7   1  36  -1  53  -1  68  -1
M  END
$$$$
