5_3_8920
 OpenBabel04152301373D

133143  0  0  0  0  0  0  0  0999 V2000
    1.0411   -0.1291   -0.0466 C   0  0  0  0  0  0  0  0  0  0  0  0
    0.7633   -1.2910   -0.8754 N   0  0  0  0  0  0  0  0  0  0  0  0
   -0.4376   -2.0581   -0.5674 C   0  0  0  0  0  0  0  0  0  0  0  0
    1.0841   -1.2009   -2.2295 C   0  0  0  0  0  0  0  0  0  0  0  0
    2.3668   -0.8317   -2.6268 C   0  0  0  0  0  0  0  0  0  0  0  0
    2.6988   -0.7824   -3.9852 C   0  0  0  0  0  0  0  0  0  0  0  0
    4.0828   -0.4246   -4.4408 C   0  0  0  0  0  0  0  0  0  0  0  0
    4.6664   -1.4211   -5.1634 F   0  0  0  0  0  0  0  0  0  0  0  0
    4.1028    0.6766   -5.2413 F   0  0  0  0  0  0  0  0  0  0  0  0
    4.9439   -0.1557   -3.4193 F   0  0  0  0  0  0  0  0  0  0  0  0
    1.7142   -1.0987   -4.9201 C   0  0  0  0  0  0  0  0  0  0  0  0
    0.4538   -1.4629   -4.4684 C   0  0  0  0  0  0  0  0  0  0  0  0
   -0.6214   -1.8234   -5.3994 C   0  0  0  0  0  0  0  0  0  0  0  0
   -1.8348   -1.1195   -5.4045 C   0  0  0  0  0  0  0  0  0  0  0  0
   -2.8447   -1.4440   -6.3115 C   0  0  0  0  0  0  0  0  0  0  0  0
   -2.6603   -2.4870   -7.2204 C   0  0  0  0  0  0  0  0  0  0  0  0
   -1.4644   -3.2142   -7.2347 C   0  0  0  0  0  0  0  0  0  0  0  0
   -1.2648   -4.3670   -8.1247 C   0  0  0  0  0  0  0  0  0  0  0  0
   -1.6245   -4.3682   -9.4172 C   0  0  0  0  0  0  0  0  0  0  0  0
   -1.5170   -5.5290  -10.3251 C   0  0  0  0  0  0  0  0  0  0  0  0
   -1.9128   -5.4702  -11.4800 O   0  0  0  0  0  0  0  0  0  0  0  0
   -0.9865   -6.6178   -9.7187 O   0  0  0  0  0  0  0  0  0  0  0  0
   -1.0173   -7.8389  -10.4795 C   0  0  0  0  0  0  0  0  0  0  0  0
   -2.1385   -8.7666  -10.0010 C   0  0  0  0  0  0  0  0  0  0  0  0
   -3.4424   -8.2210  -10.2711 O   0  0  0  0  0  0  0  0  0  0  0  0
   -3.9618   -7.4631   -9.2731 C   0  0  0  0  0  0  0  0  0  0  0  0
   -3.4519   -7.2350   -8.1896 O   0  0  0  0  0  0  0  0  0  0  0  0
   -5.2116   -6.8258   -9.7266 C   0  0  0  0  0  0  0  0  0  0  0  0
   -5.3330   -5.4416   -9.5729 C   0  0  0  0  0  0  0  0  0  0  0  0
   -6.5189   -4.8015   -9.9279 C   0  0  0  0  0  0  0  0  0  0  0  0
   -7.5980   -5.5425  -10.4293 C   0  0  0  0  0  0  0  0  0  0  0  0
   -8.8781   -4.8587  -10.7416 C   0  0  0  0  0  0  0  0  0  0  0  0
  -10.0481   -4.9925   -9.8091 C   0  0  0  0  0  0  0  0  0  0  0  0
  -11.2548   -4.4978   -9.9150 N   0  0  0  0  0  0  0  0  0  0  0  0
  -11.9449   -4.9347   -8.7894 C   0  0  0  0  0  0  0  0  0  0  0  0
  -13.2210   -4.6602   -8.4170 C   0  0  0  0  0  0  0  0  0  0  0  0
  -13.7218   -5.3077   -7.1465 C   0  0  0  0  0  0  0  0  0  0  0  0
  -13.1478   -5.0268   -5.8935 C   0  0  0  0  0  0  0  0  0  0  0  0
  -13.5505   -5.7499   -4.7598 C   0  0  0  0  0  0  0  0  0  0  0  0
  -12.5802   -5.5834   -3.2354 S   0  0  0  0  0  0  0  0  0  0  0  0
  -11.2386   -5.9301   -3.6985 O   0  0  0  0  0  0  0  0  0  0  0  0
  -12.7925   -4.1858   -2.8783 O   0  0  0  0  0  0  0  0  0  0  0  0
  -13.1895   -6.5585   -2.3329 O   0  5  0  0  0  0  0  0  0  0  0  0
  -14.5934   -6.6765   -4.8250 C   0  0  0  0  0  0  0  0  0  0  0  0
  -15.2096   -6.9158   -6.0494 C   0  0  0  0  0  0  0  0  0  0  0  0
  -14.7561   -6.2594   -7.1956 C   0  0  0  0  0  0  0  0  0  0  0  0
  -15.3305   -6.5852   -8.3643 F   0  0  0  0  0  0  0  0  0  0  0  0
  -14.1254   -3.8392   -9.1888 C   0  0  0  0  0  0  0  0  0  0  0  0
  -15.4263   -3.4710   -8.8900 C   0  0  0  0  0  0  0  0  0  0  0  0
  -15.9400   -2.7472   -9.9732 C   0  0  0  0  0  0  0  0  0  0  0  0
  -14.9370   -2.5943  -10.9171 C   0  0  0  0  0  0  0  0  0  0  0  0
  -13.8310   -3.2729  -10.4241 N   0  0  0  0  0  0  0  0  0  0  0  0
  -14.9824   -1.8773  -12.1718 C   0  0  0  0  0  0  0  0  0  0  0  0
  -16.2647   -1.1762  -12.5524 C   0  0  0  0  0  0  0  0  0  0  0  0
  -17.0257   -1.5771  -13.6650 C   0  0  0  0  0  0  0  0  0  0  0  0
  -18.1751   -0.8551  -14.0231 C   0  0  0  0  0  0  0  0  0  0  0  0
  -19.0316   -1.2835  -15.5642 S   0  0  0  0  0  0  0  0  0  0  0  0
  -17.9798   -1.0955  -16.5582 O   0  0  0  0  0  0  0  0  0  0  0  0
  -19.4411   -2.6628  -15.3215 O   0  0  0  0  0  0  0  0  0  0  0  0
  -20.1256   -0.3159  -15.6295 O   0  5  0  0  0  0  0  0  0  0  0  0
  -18.6240    0.2200  -13.2514 C   0  0  0  0  0  0  0  0  0  0  0  0
  -17.8971    0.5983  -12.1264 C   0  0  0  0  0  0  0  0  0  0  0  0
  -16.7224   -0.0805  -11.7989 C   0  0  0  0  0  0  0  0  0  0  0  0
  -16.0340    0.3481  -10.7288 F   0  0  0  0  0  0  0  0  0  0  0  0
  -13.9317   -1.7401  -13.0214 C   0  0  0  0  0  0  0  0  0  0  0  0
  -12.6387   -2.2434  -12.9086 N   0  0  0  0  0  0  0  0  0  0  0  0
  -12.0026   -1.8423  -13.9853 C   0  0  0  0  0  0  0  0  0  0  0  0
  -10.5685   -2.0784  -14.3823 C   0  0  0  0  0  0  0  0  0  0  0  0
  -10.0428   -1.5859  -15.6861 C   0  0  0  0  0  0  0  0  0  0  0  0
   -9.8911   -0.2151  -15.9430 C   0  0  0  0  0  0  0  0  0  0  0  0
   -9.4288    0.2116  -17.1983 C   0  0  0  0  0  0  0  0  0  0  0  0
   -9.3517    1.9914  -17.5394 S   0  0  0  0  0  0  0  0  0  0  0  0
  -10.7498    2.3822  -17.4002 O   0  0  0  0  0  0  0  0  0  0  0  0
   -8.4467    2.4624  -16.4962 O   0  0  0  0  0  0  0  0  0  0  0  0
   -8.8174    2.0550  -18.8983 O   0  5  0  0  0  0  0  0  0  0  0  0
   -9.0664   -0.7047  -18.1892 C   0  0  0  0  0  0  0  0  0  0  0  0
   -9.1945   -2.0660  -17.9334 C   0  0  0  0  0  0  0  0  0  0  0  0
   -9.6956   -2.4933  -16.7037 C   0  0  0  0  0  0  0  0  0  0  0  0
   -9.8212   -3.8154  -16.5057 F   0  0  0  0  0  0  0  0  0  0  0  0
   -9.7681   -2.7835  -13.5585 C   0  0  0  0  0  0  0  0  0  0  0  0
   -8.3617   -3.0934  -13.8041 C   0  0  0  0  0  0  0  0  0  0  0  0
   -7.9064   -3.8860  -12.8203 C   0  0  0  0  0  0  0  0  0  0  0  0
   -8.9812   -4.1064  -11.8525 C   0  0  0  0  0  0  0  0  0  0  0  0
  -10.0391   -3.3930  -12.3565 N   0  0  0  0  0  0  0  0  0  0  0  0
  -12.8241   -1.0537  -14.9122 C   0  0  0  0  0  0  0  0  0  0  0  0
  -13.9781   -0.9934  -14.2628 C   0  0  0  0  0  0  0  0  0  0  0  0
  -11.0270   -5.7663   -8.0366 C   0  0  0  0  0  0  0  0  0  0  0  0
   -9.8281   -5.7972   -8.5999 C   0  0  0  0  0  0  0  0  0  0  0  0
   -7.4645   -6.9328  -10.5907 C   0  0  0  0  0  0  0  0  0  0  0  0
   -6.2735   -7.5772  -10.2369 C   0  0  0  0  0  0  0  0  0  0  0  0
   -0.4589   -2.8791   -6.3172 C   0  0  0  0  0  0  0  0  0  0  0  0
    0.1473   -1.5144   -3.1499 N   0  0  0  0  0  0  0  0  0  0  0  0
    0.7489   -0.3327    0.9624 H   0  0  0  0  0  0  0  0  0  0  0  0
    0.4906    0.7114   -0.4147 H   0  0  0  0  0  0  0  0  0  0  0  0
    2.0882    0.0890   -0.0776 H   0  0  0  0  0  0  0  0  0  0  0  0
   -0.5940   -2.0661    0.4911 H   0  0  0  0  0  0  0  0  0  0  0  0
   -0.3192   -3.0621   -0.9180 H   0  0  0  0  0  0  0  0  0  0  0  0
   -1.2809   -1.6092   -1.0492 H   0  0  0  0  0  0  0  0  0  0  0  0
    3.0759   -0.5933   -1.9159 H   0  0  0  0  0  0  0  0  0  0  0  0
    1.9193   -1.0626   -5.9309 H   0  0  0  0  0  0  0  0  0  0  0  0
   -1.9824   -0.3528   -4.7297 H   0  0  0  0  0  0  0  0  0  0  0  0
   -3.7290   -0.9120   -6.3101 H   0  0  0  0  0  0  0  0  0  0  0  0
   -3.4116   -2.7239   -7.8871 H   0  0  0  0  0  0  0  0  0  0  0  0
   -0.8266   -5.2168   -7.7364 H   0  0  0  0  0  0  0  0  0  0  0  0
   -2.0052   -3.4917   -9.8069 H   0  0  0  0  0  0  0  0  0  0  0  0
   -0.0790   -8.3413  -10.3698 H   0  0  0  0  0  0  0  0  0  0  0  0
   -1.1982   -7.5926  -11.5049 H   0  0  0  0  0  0  0  0  0  0  0  0
   -2.0378   -8.9145   -8.9461 H   0  0  0  0  0  0  0  0  0  0  0  0
   -2.0510   -9.6915  -10.5319 H   0  0  0  0  0  0  0  0  0  0  0  0
   -4.5439   -4.8934   -9.1963 H   0  0  0  0  0  0  0  0  0  0  0  0
   -6.6029   -3.7785   -9.8213 H   0  0  0  0  0  0  0  0  0  0  0  0
  -12.4309   -4.2894   -5.8077 H   0  0  0  0  0  0  0  0  0  0  0  0
  -14.9027   -7.1767   -3.9770 H   0  0  0  0  0  0  0  0  0  0  0  0
  -15.9998   -7.5767   -6.1103 H   0  0  0  0  0  0  0  0  0  0  0  0
  -15.9313   -3.6923   -8.0176 H   0  0  0  0  0  0  0  0  0  0  0  0
  -16.9040   -2.3879  -10.0548 H   0  0  0  0  0  0  0  0  0  0  0  0
  -12.9629   -3.3431  -10.8831 H   0  0  0  0  0  0  0  0  0  0  0  0
  -16.7397   -2.4006  -14.2172 H   0  0  0  0  0  0  0  0  0  0  0  0
  -19.4840    0.7272  -13.5125 H   0  0  0  0  0  0  0  0  0  0  0  0
  -18.2257    1.3784  -11.5361 H   0  0  0  0  0  0  0  0  0  0  0  0
  -10.1184    0.4771  -15.2121 H   0  0  0  0  0  0  0  0  0  0  0  0
   -8.7082   -0.3756  -19.0994 H   0  0  0  0  0  0  0  0  0  0  0  0
   -8.9202   -2.7563  -18.6498 H   0  0  0  0  0  0  0  0  0  0  0  0
   -7.8064   -2.7567  -14.6062 H   0  0  0  0  0  0  0  0  0  0  0  0
   -6.9531   -4.2763  -12.7572 H   0  0  0  0  0  0  0  0  0  0  0  0
  -10.9091   -3.3241  -11.9009 H   0  0  0  0  0  0  0  0  0  0  0  0
  -12.5699   -0.6521  -15.8282 H   0  0  0  0  0  0  0  0  0  0  0  0
  -14.8068   -0.4786  -14.5994 H   0  0  0  0  0  0  0  0  0  0  0  0
  -11.2758   -6.2706   -7.1713 H   0  0  0  0  0  0  0  0  0  0  0  0
   -8.9668   -6.2636   -8.2749 H   0  0  0  0  0  0  0  0  0  0  0  0
   -8.2503   -7.4820  -10.9727 H   0  0  0  0  0  0  0  0  0  0  0  0
   -6.1804   -8.5985  -10.3519 H   0  0  0  0  0  0  0  0  0  0  0  0
    0.4209   -3.4186   -6.3143 H   0  0  0  0  0  0  0  0  0  0  0  0
  1  2  1  0  0  0  0
  1 93  1  0  0  0  0
  1 94  1  0  0  0  0
  1 95  1  0  0  0  0
  2  3  1  0  0  0  0
  2  4  1  0  0  0  0
  3 96  1  0  0  0  0
  3 97  1  0  0  0  0
  3 98  1  0  0  0  0
  4  5  1  0  0  0  0
  4 92  2  0  0  0  0
  5  6  2  0  0  0  0
  5 99  1  0  0  0  0
  6  7  1  0  0  0  0
  6 11  1  0  0  0  0
  7  8  1  0  0  0  0
  7  9  1  0  0  0  0
  7 10  1  0  0  0  0
 11 12  2  0  0  0  0
 11100  1  0  0  0  0
 12 13  1  0  0  0  0
 12 92  1  0  0  0  0
 13 14  1  0  0  0  0
 13 91  2  0  0  0  0
 14 15  2  0  0  0  0
 14101  1  0  0  0  0
 15 16  1  0  0  0  0
 15102  1  0  0  0  0
 16 17  2  0  0  0  0
 16103  1  0  0  0  0
 17 18  1  0  0  0  0
 17 91  1  0  0  0  0
 18 19  2  0  0  0  0
 18104  1  0  0  0  0
 19 20  1  0  0  0  0
 19105  1  0  0  0  0
 20 21  2  0  0  0  0
 20 22  1  0  0  0  0
 22 23  1  0  0  0  0
 23 24  1  0  0  0  0
 23106  1  0  0  0  0
 23107  1  0  0  0  0
 24 25  1  0  0  0  0
 24108  1  0  0  0  0
 24109  1  0  0  0  0
 25 26  1  0  0  0  0
 26 27  2  0  0  0  0
 26 28  1  0  0  0  0
 28 29  1  0  0  0  0
 28 90  2  0  0  0  0
 29 30  2  0  0  0  0
 29110  1  0  0  0  0
 30 31  1  0  0  0  0
 30111  1  0  0  0  0
 31 32  1  0  0  0  0
 31 89  2  0  0  0  0
 32 33  1  0  0  0  0
 32 83  2  0  0  0  0
 33 34  2  0  0  0  0
 33 88  1  0  0  0  0
 34 35  1  0  0  0  0
 35 36  2  0  0  0  0
 35 87  1  0  0  0  0
 36 37  1  0  0  0  0
 36 48  1  0  0  0  0
 37 38  1  0  0  0  0
 37 46  2  0  0  0  0
 38 39  2  0  0  0  0
 38112  1  0  0  0  0
 39 40  1  0  0  0  0
 39 44  1  0  0  0  0
 40 41  2  0  0  0  0
 40 42  2  0  0  0  0
 40 43  1  0  0  0  0
 44 45  2  0  0  0  0
 44113  1  0  0  0  0
 45 46  1  0  0  0  0
 45114  1  0  0  0  0
 46 47  1  0  0  0  0
 48 49  2  0  0  0  0
 48 52  1  0  0  0  0
 49 50  1  0  0  0  0
 49115  1  0  0  0  0
 50 51  2  0  0  0  0
 50116  1  0  0  0  0
 51 52  1  0  0  0  0
 51 53  1  0  0  0  0
 52117  1  0  0  0  0
 53 54  1  0  0  0  0
 53 65  2  0  0  0  0
 54 55  1  0  0  0  0
 54 63  2  0  0  0  0
 55 56  2  0  0  0  0
 55118  1  0  0  0  0
 56 57  1  0  0  0  0
 56 61  1  0  0  0  0
 57 58  2  0  0  0  0
 57 59  2  0  0  0  0
 57 60  1  0  0  0  0
 61 62  2  0  0  0  0
 61119  1  0  0  0  0
 62 63  1  0  0  0  0
 62120  1  0  0  0  0
 63 64  1  0  0  0  0
 65 66  1  0  0  0  0
 65 86  1  0  0  0  0
 66 67  2  0  0  0  0
 67 68  1  0  0  0  0
 67 85  1  0  0  0  0
 68 69  1  0  0  0  0
 68 80  2  0  0  0  0
 69 70  1  0  0  0  0
 69 78  2  0  0  0  0
 70 71  2  0  0  0  0
 70121  1  0  0  0  0
 71 72  1  0  0  0  0
 71 76  1  0  0  0  0
 72 73  2  0  0  0  0
 72 74  2  0  0  0  0
 72 75  1  0  0  0  0
 76 77  2  0  0  0  0
 76122  1  0  0  0  0
 77 78  1  0  0  0  0
 77123  1  0  0  0  0
 78 79  1  0  0  0  0
 80 81  1  0  0  0  0
 80 84  1  0  0  0  0
 81 82  2  0  0  0  0
 81124  1  0  0  0  0
 82 83  1  0  0  0  0
 82125  1  0  0  0  0
 83 84  1  0  0  0  0
 84126  1  0  0  0  0
 85 86  2  0  0  0  0
 85127  1  0  0  0  0
 86128  1  0  0  0  0
 87 88  2  0  0  0  0
 87129  1  0  0  0  0
 88130  1  0  0  0  0
 89 90  1  0  0  0  0
 89131  1  0  0  0  0
 90132  1  0  0  0  0
 91133  1  0  0  0  0
M  CHG  3  43  -1  60  -1  75  -1
M  END
$$$$
