5_3_6860
 OpenBabel04152301373D

142151  0  0  1  0  0  0  0  0999 V2000
    0.4926    0.0346   -1.9558 C   0  0  0  0  0  0  0  0  0  0  0  0
    0.3667    1.5509   -2.0372 C   0  0  0  0  0  0  0  0  0  0  0  0
    1.0287    2.2944   -0.8476 C   0  0  1  0  0  0  0  0  0  0  0  0
    2.5813    2.3910   -0.9707 C   0  0  0  0  0  0  0  0  0  0  0  0
    3.0024    3.2963   -2.0608 N   0  0  0  0  0  0  0  0  0  0  0  0
    4.1700    3.2082   -2.8103 C   0  0  0  0  0  0  0  0  0  0  0  0
    4.6750    4.2231   -3.2936 O   0  0  0  0  0  0  0  0  0  0  0  0
    4.7734    1.9653   -2.9469 N   0  0  0  0  0  0  0  0  0  0  0  0
    3.9455    0.7796   -3.2122 C   0  0  0  0  0  0  0  0  0  0  0  0
    3.6871    0.1369   -4.5643 C   0  0  0  0  0  0  0  0  0  0  0  0
    2.9577   -0.8514   -4.6487 O   0  0  0  0  0  0  0  0  0  0  0  0
    4.2490    0.7618   -5.6253 O   0  0  0  0  0  0  0  0  0  0  0  0
    3.9036    0.1660   -6.8903 C   0  0  0  0  0  0  0  0  0  0  0  0
    4.9081   -0.9076   -7.3116 C   0  0  0  0  0  0  0  0  0  0  0  0
    5.1751   -1.8148   -6.2269 O   0  0  0  0  0  0  0  0  0  0  0  0
    6.4840   -2.0680   -5.9885 C   0  0  0  0  0  0  0  0  0  0  0  0
    7.4270   -1.6794   -6.6582 O   0  0  0  0  0  0  0  0  0  0  0  0
    6.6596   -2.8891   -4.7657 C   0  0  0  0  0  0  0  0  0  0  0  0
    5.8367   -2.7363   -3.6475 C   0  0  0  0  0  0  0  0  0  0  0  0
    6.1793   -3.3416   -2.4361 C   0  0  0  0  0  0  0  0  0  0  0  0
    7.2788   -4.2097   -2.3520 C   0  0  0  0  0  0  0  0  0  0  0  0
    7.6343   -4.8771   -1.0655 C   0  0  0  0  0  0  0  0  0  0  0  0
    9.0002   -4.6882   -0.4502 C   0  0  0  0  0  0  0  0  0  0  0  0
    9.5453   -5.3089    0.5664 N   0  0  0  0  0  0  0  0  0  0  0  0
   10.8419   -4.8128    0.6706 C   0  0  0  0  0  0  0  0  0  0  0  0
   11.8087   -5.1362    1.5673 C   0  0  0  0  0  0  0  0  0  0  0  0
   13.1711   -4.5116    1.3773 C   0  0  0  0  0  0  0  0  0  0  0  0
   13.3909   -3.1330    1.5380 C   0  0  0  0  0  0  0  0  0  0  0  0
   14.6600   -2.5917    1.2766 C   0  0  0  0  0  0  0  0  0  0  0  0
   14.8480   -0.7876    1.2569 S   0  0  0  0  0  0  0  0  0  0  0  0
   13.8836   -0.4010    0.2298 O   0  0  0  0  0  0  0  0  0  0  0  0
   14.5052   -0.4205    2.6258 O   0  0  0  0  0  0  0  0  0  0  0  0
   16.2494   -0.5925    0.8904 O   0  5  0  0  0  0  0  0  0  0  0  0
   15.7429   -3.4091    0.9428 C   0  0  0  0  0  0  0  0  0  0  0  0
   15.5436   -4.7810    0.8241 C   0  0  0  0  0  0  0  0  0  0  0  0
   14.2676   -5.3152    1.0137 C   0  0  0  0  0  0  0  0  0  0  0  0
   14.1142   -6.6359    0.8281 F   0  0  0  0  0  0  0  0  0  0  0  0
   11.6281   -6.0716    2.6537 C   0  0  0  0  0  0  0  0  0  0  0  0
   12.5377   -6.4500    3.6281 C   0  0  0  0  0  0  0  0  0  0  0  0
   11.9334   -7.4086    4.4514 C   0  0  0  0  0  0  0  0  0  0  0  0
   10.6257   -7.5836    4.0309 C   0  0  0  0  0  0  0  0  0  0  0  0
   10.4570   -6.7691    2.9194 N   0  0  0  0  0  0  0  0  0  0  0  0
    9.5982   -8.4171    4.6070 C   0  0  0  0  0  0  0  0  0  0  0  0
    9.9144   -9.2156    5.8463 C   0  0  0  0  0  0  0  0  0  0  0  0
    9.9287  -10.6220    5.8283 C   0  0  0  0  0  0  0  0  0  0  0  0
   10.0946  -11.3342    7.0254 C   0  0  0  0  0  0  0  0  0  0  0  0
    9.8882  -13.1368    7.0021 S   0  0  0  0  0  0  0  0  0  0  0  0
    8.5717  -13.2862    6.3899 O   0  0  0  0  0  0  0  0  0  0  0  0
   11.0217  -13.5679    6.1905 O   0  0  0  0  0  0  0  0  0  0  0  0
    9.9596  -13.5081    8.4141 O   0  5  0  0  0  0  0  0  0  0  0  0
   10.3206  -10.6716    8.2347 C   0  0  0  0  0  0  0  0  0  0  0  0
   10.3605   -9.2797    8.2503 C   0  0  0  0  0  0  0  0  0  0  0  0
   10.1409   -8.5656    7.0713 C   0  0  0  0  0  0  0  0  0  0  0  0
   10.1346   -7.2251    7.1449 F   0  0  0  0  0  0  0  0  0  0  0  0
    8.3265   -8.5045    4.1406 C   0  0  0  0  0  0  0  0  0  0  0  0
    7.7514   -7.8814    3.0379 N   0  0  0  0  0  0  0  0  0  0  0  0
    6.5149   -8.3181    2.9895 C   0  0  0  0  0  0  0  0  0  0  0  0
    5.4331   -7.9865    2.0003 C   0  0  0  0  0  0  0  0  0  0  0  0
    4.1040   -8.6519    2.0772 C   0  0  0  0  0  0  0  0  0  0  0  0
    3.2217   -8.3798    3.1330 C   0  0  0  0  0  0  0  0  0  0  0  0
    1.9951   -9.0565    3.2067 C   0  0  0  0  0  0  0  0  0  0  0  0
    0.9331   -8.7707    4.6481 S   0  0  0  0  0  0  0  0  0  0  0  0
    1.7970   -9.1944    5.7441 O   0  0  0  0  0  0  0  0  0  0  0  0
    0.6736   -7.3377    4.5535 O   0  0  0  0  0  0  0  0  0  0  0  0
   -0.2225   -9.6284    4.3947 O   0  5  0  0  0  0  0  0  0  0  0  0
    1.6065   -9.9646    2.2183 C   0  0  0  0  0  0  0  0  0  0  0  0
    2.4670  -10.2200    1.1549 C   0  0  0  0  0  0  0  0  0  0  0  0
    3.7070   -9.5837    1.1019 C   0  0  0  0  0  0  0  0  0  0  0  0
    4.5148   -9.8702    0.0685 F   0  0  0  0  0  0  0  0  0  0  0  0
    5.6922   -7.1101    1.0112 C   0  0  0  0  0  0  0  0  0  0  0  0
    4.7547   -6.7417   -0.0428 C   0  0  0  0  0  0  0  0  0  0  0  0
    5.3767   -5.9417   -0.9211 C   0  0  0  0  0  0  0  0  0  0  0  0
    6.7370   -5.6728   -0.4489 C   0  0  0  0  0  0  0  0  0  0  0  0
    6.8326   -6.4027    0.7102 N   0  0  0  0  0  0  0  0  0  0  0  0
    6.1640   -9.2666    4.0533 C   0  0  0  0  0  0  0  0  0  0  0  0
    7.2915   -9.3180    4.7462 C   0  0  0  0  0  0  0  0  0  0  0  0
   11.0011   -3.8443   -0.3952 C   0  0  0  0  0  0  0  0  0  0  0  0
    9.8739   -3.6838   -1.0744 C   0  0  0  0  0  0  0  0  0  0  0  0
    8.0435   -4.4300   -3.5087 C   0  0  0  0  0  0  0  0  0  0  0  0
    7.7642   -3.7404   -4.6931 C   0  0  0  0  0  0  0  0  0  0  0  0
    6.2763    1.8880   -2.9989 C   0  0  0  0  0  0  0  0  0  0  0  0
    6.8501    2.4546   -4.3122 C   0  0  0  0  0  0  0  0  0  0  0  0
    6.8803    2.6685   -1.8042 C   0  0  0  0  0  0  0  0  0  0  0  0
    6.8018    0.4467   -2.8593 C   0  0  0  0  0  0  0  0  0  0  0  0
    2.3719    4.6156   -1.9900 C   0  0  0  0  0  0  0  0  0  0  0  0
    0.8492    4.5436   -1.7876 C   0  0  0  0  0  0  0  0  0  0  0  0
    0.3863    3.6329   -0.7204 N   0  3  2  0  0  0  0  0  0  0  0  0
    0.6059    4.2055    0.6077 C   0  0  0  0  0  0  0  0  0  0  0  0
    0.0157   -0.4090   -2.8047 H   0  0  0  0  0  0  0  0  0  0  0  0
    0.0231   -0.3147   -1.0600 H   0  0  0  0  0  0  0  0  0  0  0  0
    1.5274   -0.2373   -1.9455 H   0  0  0  0  0  0  0  0  0  0  0  0
   -0.6729    1.8033   -2.0574 H   0  0  0  0  0  0  0  0  0  0  0  0
    0.8783    1.8608   -2.9244 H   0  0  0  0  0  0  0  0  0  0  0  0
    0.8675    1.7291    0.0464 H   0  0  0  0  0  0  0  0  0  0  0  0
    2.9726    1.4141   -1.1642 H   0  0  0  0  0  0  0  0  0  0  0  0
    2.9585    2.7880   -0.0514 H   0  0  0  0  0  0  0  0  0  0  0  0
    2.9760    1.0282   -2.8337 H   0  0  0  0  0  0  0  0  0  0  0  0
    4.5715    0.0283   -2.7780 H   0  0  0  0  0  0  0  0  0  0  0  0
    3.8819    0.9311   -7.6380 H   0  0  0  0  0  0  0  0  0  0  0  0
    2.9462   -0.3002   -6.7855 H   0  0  0  0  0  0  0  0  0  0  0  0
    5.8220   -0.4358   -7.6068 H   0  0  0  0  0  0  0  0  0  0  0  0
    4.4936   -1.4624   -8.1272 H   0  0  0  0  0  0  0  0  0  0  0  0
    4.9735   -2.1749   -3.7164 H   0  0  0  0  0  0  0  0  0  0  0  0
    5.6170   -3.1481   -1.5927 H   0  0  0  0  0  0  0  0  0  0  0  0
   12.6210   -2.5194    1.8476 H   0  0  0  0  0  0  0  0  0  0  0  0
   16.6777   -3.0009    0.7864 H   0  0  0  0  0  0  0  0  0  0  0  0
   16.3362   -5.4016    0.5967 H   0  0  0  0  0  0  0  0  0  0  0  0
   13.4983   -6.0868    3.7300 H   0  0  0  0  0  0  0  0  0  0  0  0
   12.3858   -7.9007    5.2376 H   0  0  0  0  0  0  0  0  0  0  0  0
    9.6269   -6.6964    2.3951 H   0  0  0  0  0  0  0  0  0  0  0  0
    9.8174  -11.1289    4.9363 H   0  0  0  0  0  0  0  0  0  0  0  0
   10.4564  -11.2075    9.1061 H   0  0  0  0  0  0  0  0  0  0  0  0
   10.5519   -8.7775    9.1313 H   0  0  0  0  0  0  0  0  0  0  0  0
    3.4739   -7.6845    3.8528 H   0  0  0  0  0  0  0  0  0  0  0  0
    0.6924  -10.4401    2.2762 H   0  0  0  0  0  0  0  0  0  0  0  0
    2.1890  -10.8770    0.4092 H   0  0  0  0  0  0  0  0  0  0  0  0
    3.7709   -7.0474   -0.1032 H   0  0  0  0  0  0  0  0  0  0  0  0
    4.9626   -5.5738   -1.7918 H   0  0  0  0  0  0  0  0  0  0  0  0
    7.6407   -6.4182    1.2724 H   0  0  0  0  0  0  0  0  0  0  0  0
    5.2740   -9.7624    4.2178 H   0  0  0  0  0  0  0  0  0  0  0  0
    7.4173   -9.8688    5.6098 H   0  0  0  0  0  0  0  0  0  0  0  0
   11.8799   -3.3433   -0.5996 H   0  0  0  0  0  0  0  0  0  0  0  0
    9.6644   -3.0256   -1.8412 H   0  0  0  0  0  0  0  0  0  0  0  0
    8.8207   -5.1086   -3.4848 H   0  0  0  0  0  0  0  0  0  0  0  0
    8.3760   -3.8610   -5.5154 H   0  0  0  0  0  0  0  0  0  0  0  0
    6.5072    3.4591   -4.4472 H   0  0  0  0  0  0  0  0  0  0  0  0
    6.5224    1.8524   -5.1337 H   0  0  0  0  0  0  0  0  0  0  0  0
    7.9191    2.4456   -4.2675 H   0  0  0  0  0  0  0  0  0  0  0  0
    6.5525    3.6864   -1.8408 H   0  0  0  0  0  0  0  0  0  0  0  0
    7.9483    2.6355   -1.8600 H   0  0  0  0  0  0  0  0  0  0  0  0
    6.5571    2.2225   -0.8868 H   0  0  0  0  0  0  0  0  0  0  0  0
    6.4194   -0.1515   -3.6598 H   0  0  0  0  0  0  0  0  0  0  0  0
    6.4799    0.0387   -1.9240 H   0  0  0  0  0  0  0  0  0  0  0  0
    7.8711    0.4517   -2.8971 H   0  0  0  0  0  0  0  0  0  0  0  0
    2.5703    5.1378   -2.9026 H   0  0  0  0  0  0  0  0  0  0  0  0
    2.7839    5.1222   -1.1424 H   0  0  0  0  0  0  0  0  0  0  0  0
    0.4102    4.2207   -2.7084 H   0  0  0  0  0  0  0  0  0  0  0  0
    0.5490    5.5247   -1.4838 H   0  0  0  0  0  0  0  0  0  0  0  0
   -0.6199    3.5096   -0.8330 H   0  0  0  0  0  0  0  0  0  0  0  0
    1.6543    4.3505    0.7647 H   0  0  0  0  0  0  0  0  0  0  0  0
    0.2228    3.5385    1.3515 H   0  0  0  0  0  0  0  0  0  0  0  0
    0.1012    5.1463    0.6784 H   0  0  0  0  0  0  0  0  0  0  0  0
  1  2  1  0  0  0  0
  1 89  1  0  0  0  0
  1 90  1  0  0  0  0
  1 91  1  0  0  0  0
  2 92  1  0  0  0  0
  2 93  1  0  0  0  0
  3  4  1  0  0  0  0
  3 87  1  0  0  0  0
  3  2  1  0  0  0  0
  3 94  1  1  0  0  0
  4  5  1  0  0  0  0
  4 95  1  0  0  0  0
  4 96  1  0  0  0  0
  5  6  1  0  0  0  0
  5 85  1  0  0  0  0
  6  7  2  0  0  0  0
  6  8  1  0  0  0  0
  8  9  1  0  0  0  0
  8 81  1  0  0  0  0
  9 10  1  0  0  0  0
  9 97  1  0  0  0  0
  9 98  1  0  0  0  0
 10 11  2  0  0  0  0
 10 12  1  0  0  0  0
 12 13  1  0  0  0  0
 13 14  1  0  0  0  0
 13 99  1  0  0  0  0
 13100  1  0  0  0  0
 14 15  1  0  0  0  0
 14101  1  0  0  0  0
 14102  1  0  0  0  0
 15 16  1  0  0  0  0
 16 17  2  0  0  0  0
 16 18  1  0  0  0  0
 18 19  1  0  0  0  0
 18 80  2  0  0  0  0
 19 20  2  0  0  0  0
 19103  1  0  0  0  0
 20 21  1  0  0  0  0
 20104  1  0  0  0  0
 21 22  1  0  0  0  0
 21 79  2  0  0  0  0
 22 23  1  0  0  0  0
 22 73  2  0  0  0  0
 23 24  2  0  0  0  0
 23 78  1  0  0  0  0
 24 25  1  0  0  0  0
 25 26  2  0  0  0  0
 25 77  1  0  0  0  0
 26 27  1  0  0  0  0
 26 38  1  0  0  0  0
 27 28  1  0  0  0  0
 27 36  2  0  0  0  0
 28 29  2  0  0  0  0
 28105  1  0  0  0  0
 29 30  1  0  0  0  0
 29 34  1  0  0  0  0
 30 31  2  0  0  0  0
 30 32  2  0  0  0  0
 30 33  1  0  0  0  0
 34 35  2  0  0  0  0
 34106  1  0  0  0  0
 35 36  1  0  0  0  0
 35107  1  0  0  0  0
 36 37  1  0  0  0  0
 38 39  2  0  0  0  0
 38 42  1  0  0  0  0
 39 40  1  0  0  0  0
 39108  1  0  0  0  0
 40 41  2  0  0  0  0
 40109  1  0  0  0  0
 41 42  1  0  0  0  0
 41 43  1  0  0  0  0
 42110  1  0  0  0  0
 43 44  1  0  0  0  0
 43 55  2  0  0  0  0
 44 45  1  0  0  0  0
 44 53  2  0  0  0  0
 45 46  2  0  0  0  0
 45111  1  0  0  0  0
 46 47  1  0  0  0  0
 46 51  1  0  0  0  0
 47 48  2  0  0  0  0
 47 49  2  0  0  0  0
 47 50  1  0  0  0  0
 51 52  2  0  0  0  0
 51112  1  0  0  0  0
 52 53  1  0  0  0  0
 52113  1  0  0  0  0
 53 54  1  0  0  0  0
 55 56  1  0  0  0  0
 55 76  1  0  0  0  0
 56 57  2  0  0  0  0
 57 58  1  0  0  0  0
 57 75  1  0  0  0  0
 58 59  1  0  0  0  0
 58 70  2  0  0  0  0
 59 60  1  0  0  0  0
 59 68  2  0  0  0  0
 60 61  2  0  0  0  0
 60114  1  0  0  0  0
 61 62  1  0  0  0  0
 61 66  1  0  0  0  0
 62 63  2  0  0  0  0
 62 64  2  0  0  0  0
 62 65  1  0  0  0  0
 66 67  2  0  0  0  0
 66115  1  0  0  0  0
 67 68  1  0  0  0  0
 67116  1  0  0  0  0
 68 69  1  0  0  0  0
 70 71  1  0  0  0  0
 70 74  1  0  0  0  0
 71 72  2  0  0  0  0
 71117  1  0  0  0  0
 72 73  1  0  0  0  0
 72118  1  0  0  0  0
 73 74  1  0  0  0  0
 74119  1  0  0  0  0
 75 76  2  0  0  0  0
 75120  1  0  0  0  0
 76121  1  0  0  0  0
 77 78  2  0  0  0  0
 77122  1  0  0  0  0
 78123  1  0  0  0  0
 79 80  1  0  0  0  0
 79124  1  0  0  0  0
 80125  1  0  0  0  0
 81 82  1  0  0  0  0
 81 83  1  0  0  0  0
 81 84  1  0  0  0  0
 82126  1  0  0  0  0
 82127  1  0  0  0  0
 82128  1  0  0  0  0
 83129  1  0  0  0  0
 83130  1  0  0  0  0
 83131  1  0  0  0  0
 84132  1  0  0  0  0
 84133  1  0  0  0  0
 84134  1  0  0  0  0
 85 86  1  0  0  0  0
 85135  1  0  0  0  0
 85136  1  0  0  0  0
 86 87  1  0  0  0  0
 86137  1  0  0  0  0
 86138  1  0  0  0  0
 87 88  1  0  0  0  0
 87139  1  6  0  0  0
 88140  1  0  0  0  0
 88141  1  0  0  0  0
 88142  1  0  0  0  0
M  CHG  4  33  -1  50  -1  65  -1  87   1
M  END
$$$$
