5_3_7038
 OpenBabel04152301373D

141151  0  0  1  0  0  0  0  0999 V2000
    0.9104   -0.1216    0.0021 C   0  0  0  0  0  0  0  0  0  0  0  0
    0.0482   -0.6745    1.0012 O   0  0  0  0  0  0  0  0  0  0  0  0
    0.4508   -1.8743    1.5116 C   0  0  0  0  0  0  0  0  0  0  0  0
    1.4512   -2.4851    1.1630 O   0  0  0  0  0  0  0  0  0  0  0  0
   -0.5017   -2.3312    2.5948 C   0  0  0  0  0  0  0  0  0  0  0  0
   -0.2230   -1.5360    3.8834 C   0  0  1  0  0  0  0  0  0  0  0  0
   -0.7802   -0.1635    3.6557 N   0  0  0  0  0  0  0  0  0  0  0  0
   -0.8874    1.0379    4.2911 C   0  0  0  0  0  0  0  0  0  0  0  0
   -1.1519    2.0272    3.6055 O   0  0  0  0  0  0  0  0  0  0  0  0
   -0.8639    1.2131    5.7423 C   0  0  0  0  0  0  0  0  0  0  0  0
   -2.0713    1.6349    6.3355 C   0  0  0  0  0  0  0  0  0  0  0  0
   -2.1794    1.7457    7.7210 C   0  0  0  0  0  0  0  0  0  0  0  0
   -1.0618    1.5134    8.5140 C   0  0  0  0  0  0  0  0  0  0  0  0
    0.1545    1.1626    7.9191 C   0  0  0  0  0  0  0  0  0  0  0  0
    0.2549    0.9870    6.5300 C   0  0  0  0  0  0  0  0  0  0  0  0
    1.4444    0.3432    5.9623 C   0  0  0  0  0  0  0  0  0  0  0  0
    1.7359   -0.8051    6.2449 O   0  0  0  0  0  0  0  0  0  0  0  0
    2.1150    1.1170    5.0783 O   0  0  0  0  0  0  0  0  0  0  0  0
    3.2311    0.4365    4.4657 C   0  0  0  0  0  0  0  0  0  0  0  0
    4.5351    0.5707    5.2606 C   0  0  0  0  0  0  0  0  0  0  0  0
    4.4989   -0.1367    6.5158 O   0  0  0  0  0  0  0  0  0  0  0  0
    4.0885    0.6098    7.5654 C   0  0  0  0  0  0  0  0  0  0  0  0
    3.7904    1.7959    7.5484 O   0  0  0  0  0  0  0  0  0  0  0  0
    3.9917   -0.1891    8.7945 C   0  0  0  0  0  0  0  0  0  0  0  0
    2.7951   -0.8376    9.1029 C   0  0  0  0  0  0  0  0  0  0  0  0
    2.5341   -1.2509   10.3992 C   0  0  0  0  0  0  0  0  0  0  0  0
    3.5226   -1.1411   11.3771 C   0  0  0  0  0  0  0  0  0  0  0  0
    3.2273   -1.5408   12.7730 C   0  0  0  0  0  0  0  0  0  0  0  0
    3.3284   -0.5190   13.8688 C   0  0  0  0  0  0  0  0  0  0  0  0
    3.3472   -0.6904   15.1636 N   0  0  0  0  0  0  0  0  0  0  0  0
    3.5393    0.5751   15.7091 C   0  0  0  0  0  0  0  0  0  0  0  0
    3.6145    0.9225   17.0182 C   0  0  0  0  0  0  0  0  0  0  0  0
    3.9281    2.3671   17.3383 C   0  0  0  0  0  0  0  0  0  0  0  0
    3.0895    3.4218   16.9363 C   0  0  0  0  0  0  0  0  0  0  0  0
    3.5006    4.7525   17.1134 C   0  0  0  0  0  0  0  0  0  0  0  0
    2.5693    6.0636   16.2724 S   0  0  0  0  0  0  0  0  0  0  0  0
    2.6423    5.6291   14.8792 O   0  0  0  0  0  0  0  0  0  0  0  0
    1.2573    5.9718   16.9019 O   0  0  0  0  0  0  0  0  0  0  0  0
    3.3274    7.2746   16.5801 O   0  5  0  0  0  0  0  0  0  0  0  0
    4.6768    5.0625   17.7987 C   0  0  0  0  0  0  0  0  0  0  0  0
    5.4795    4.0259   18.2635 C   0  0  0  0  0  0  0  0  0  0  0  0
    5.1224    2.7008   18.0035 C   0  0  0  0  0  0  0  0  0  0  0  0
    5.9797    1.7437   18.3923 F   0  0  0  0  0  0  0  0  0  0  0  0
    3.4776   -0.0302   18.0949 C   0  0  0  0  0  0  0  0  0  0  0  0
    3.5206    0.1943   19.4591 C   0  0  0  0  0  0  0  0  0  0  0  0
    3.4244   -1.0411   20.1092 C   0  0  0  0  0  0  0  0  0  0  0  0
    3.2253   -2.0301   19.1578 C   0  0  0  0  0  0  0  0  0  0  0  0
    3.2744   -1.3966   17.9255 N   0  0  0  0  0  0  0  0  0  0  0  0
    2.9991   -3.4434   19.3663 C   0  0  0  0  0  0  0  0  0  0  0  0
    2.9347   -3.9487   20.7870 C   0  0  0  0  0  0  0  0  0  0  0  0
    3.8734   -4.8645   21.2922 C   0  0  0  0  0  0  0  0  0  0  0  0
    3.7271   -5.3664   22.5937 C   0  0  0  0  0  0  0  0  0  0  0  0
    4.8126   -6.7156   23.1322 S   0  0  0  0  0  0  0  0  0  0  0  0
    4.5355   -7.7426   22.1330 O   0  0  0  0  0  0  0  0  0  0  0  0
    6.1337   -6.0998   23.0649 O   0  0  0  0  0  0  0  0  0  0  0  0
    4.3382   -7.0190   24.4812 O   0  5  0  0  0  0  0  0  0  0  0  0
    2.7134   -4.9052   23.4377 C   0  0  0  0  0  0  0  0  0  0  0  0
    1.8077   -3.9631   22.9597 C   0  0  0  0  0  0  0  0  0  0  0  0
    1.9051   -3.5163   21.6422 C   0  0  0  0  0  0  0  0  0  0  0  0
    0.9765   -2.6479   21.2100 F   0  0  0  0  0  0  0  0  0  0  0  0
    2.7816   -4.3552   18.3831 C   0  0  0  0  0  0  0  0  0  0  0  0
    2.7353   -4.1716   17.0051 N   0  0  0  0  0  0  0  0  0  0  0  0
    2.5106   -5.3608   16.4927 C   0  0  0  0  0  0  0  0  0  0  0  0
    2.3488   -5.7525   15.0491 C   0  0  0  0  0  0  0  0  0  0  0  0
    2.2009   -7.1771   14.6371 C   0  0  0  0  0  0  0  0  0  0  0  0
    1.0687   -7.9233   14.9928 C   0  0  0  0  0  0  0  0  0  0  0  0
    0.9783   -9.2740   14.6213 C   0  0  0  0  0  0  0  0  0  0  0  0
   -0.4199  -10.2499   15.2373 S   0  0  0  0  0  0  0  0  0  0  0  0
   -0.2689  -10.1060   16.6806 O   0  0  0  0  0  0  0  0  0  0  0  0
   -1.5576   -9.5597   14.6388 O   0  0  0  0  0  0  0  0  0  0  0  0
   -0.1583  -11.5880   14.7114 O   0  5  0  0  0  0  0  0  0  0  0  0
    1.9661   -9.8829   13.8433 C   0  0  0  0  0  0  0  0  0  0  0  0
    3.0794   -9.1424   13.4624 C   0  0  0  0  0  0  0  0  0  0  0  0
    3.2018   -7.8172   13.8806 C   0  0  0  0  0  0  0  0  0  0  0  0
    4.3067   -7.1493   13.5110 F   0  0  0  0  0  0  0  0  0  0  0  0
    2.4144   -4.7855   14.1150 C   0  0  0  0  0  0  0  0  0  0  0  0
    2.3451   -5.0051   12.6764 C   0  0  0  0  0  0  0  0  0  0  0  0
    2.6724   -3.8667   12.0500 C   0  0  0  0  0  0  0  0  0  0  0  0
    2.8736   -2.8105   13.0461 C   0  0  0  0  0  0  0  0  0  0  0  0
    2.6367   -3.4345   14.2432 N   0  0  0  0  0  0  0  0  0  0  0  0
    2.4110   -6.4375   17.4823 C   0  0  0  0  0  0  0  0  0  0  0  0
    2.5414   -5.7663   18.6172 C   0  0  0  0  0  0  0  0  0  0  0  0
    3.6545    1.4971   14.5986 C   0  0  0  0  0  0  0  0  0  0  0  0
    3.4500    0.8837   13.4431 C   0  0  0  0  0  0  0  0  0  0  0  0
    4.7722   -0.5934   11.0328 C   0  0  0  0  0  0  0  0  0  0  0  0
    4.9921   -0.0736    9.7556 C   0  0  0  0  0  0  0  0  0  0  0  0
   -0.6208   -2.3053    5.1538 C   0  0  0  0  0  0  0  0  0  0  0  0
   -1.6166   -1.8042    6.0022 C   0  0  0  0  0  0  0  0  0  0  0  0
   -1.7497   -2.2493    7.3173 C   0  0  0  0  0  0  0  0  0  0  0  0
   -1.0004   -3.3238    7.7678 C   0  0  0  0  0  0  0  0  0  0  0  0
   -0.1473   -4.0027    6.8925 C   0  0  0  0  0  0  0  0  0  0  0  0
    0.5165   -5.2511    7.4205 C   0  0  0  0  0  0  0  0  0  0  0  0
    0.0974   -3.4659    5.5973 C   0  0  0  0  0  0  0  0  0  0  0  0
    1.0858   -4.1840    4.7060 C   0  0  0  0  0  0  0  0  0  0  0  0
    0.5129    0.8131   -0.3344 H   0  0  0  0  0  0  0  0  0  0  0  0
    0.9789   -0.7982   -0.8240 H   0  0  0  0  0  0  0  0  0  0  0  0
    1.8841    0.0337    0.4176 H   0  0  0  0  0  0  0  0  0  0  0  0
   -0.3581   -3.3751    2.7805 H   0  0  0  0  0  0  0  0  0  0  0  0
   -1.5105   -2.1634    2.2802 H   0  0  0  0  0  0  0  0  0  0  0  0
    0.8184   -1.4063    4.0921 H   0  0  0  0  0  0  0  0  0  0  0  0
   -1.2016   -0.1138    2.7673 H   0  0  0  0  0  0  0  0  0  0  0  0
   -2.8819    1.8636    5.7391 H   0  0  0  0  0  0  0  0  0  0  0  0
   -3.0815    1.9980    8.1541 H   0  0  0  0  0  0  0  0  0  0  0  0
   -1.1293    1.5996    9.5402 H   0  0  0  0  0  0  0  0  0  0  0  0
    0.9903    1.0309    8.5100 H   0  0  0  0  0  0  0  0  0  0  0  0
    3.3848    0.8472    3.4897 H   0  0  0  0  0  0  0  0  0  0  0  0
    2.9869   -0.6047    4.4318 H   0  0  0  0  0  0  0  0  0  0  0  0
    4.7104    1.6077    5.4575 H   0  0  0  0  0  0  0  0  0  0  0  0
    5.3177    0.1410    4.6709 H   0  0  0  0  0  0  0  0  0  0  0  0
    2.0998   -1.0105    8.3602 H   0  0  0  0  0  0  0  0  0  0  0  0
    1.6092   -1.6396   10.6411 H   0  0  0  0  0  0  0  0  0  0  0  0
    2.1716    3.2177   16.5110 H   0  0  0  0  0  0  0  0  0  0  0  0
    4.9466    6.0458   17.9580 H   0  0  0  0  0  0  0  0  0  0  0  0
    6.3365    4.2353   18.7990 H   0  0  0  0  0  0  0  0  0  0  0  0
    3.6085    1.1143   19.9183 H   0  0  0  0  0  0  0  0  0  0  0  0
    3.4907   -1.1913   21.1281 H   0  0  0  0  0  0  0  0  0  0  0  0
    3.1792   -1.8483   17.0559 H   0  0  0  0  0  0  0  0  0  0  0  0
    4.6680   -5.1668   20.7073 H   0  0  0  0  0  0  0  0  0  0  0  0
    2.6373   -5.2591   24.4041 H   0  0  0  0  0  0  0  0  0  0  0  0
    1.0669   -3.5965   23.5777 H   0  0  0  0  0  0  0  0  0  0  0  0
    0.3039   -7.4810   15.5262 H   0  0  0  0  0  0  0  0  0  0  0  0
    1.8706  -10.8693   13.5552 H   0  0  0  0  0  0  0  0  0  0  0  0
    3.8110   -9.5706   12.8737 H   0  0  0  0  0  0  0  0  0  0  0  0
    2.0865   -5.8916   12.2156 H   0  0  0  0  0  0  0  0  0  0  0  0
    2.7676   -3.7519   11.0288 H   0  0  0  0  0  0  0  0  0  0  0  0
    2.6267   -2.9632   15.1075 H   0  0  0  0  0  0  0  0  0  0  0  0
    2.2753   -7.4498   17.3343 H   0  0  0  0  0  0  0  0  0  0  0  0
    2.4796   -6.1953   19.5538 H   0  0  0  0  0  0  0  0  0  0  0  0
    3.8683    2.5021   14.6952 H   0  0  0  0  0  0  0  0  0  0  0  0
    3.3914    1.2843   12.4938 H   0  0  0  0  0  0  0  0  0  0  0  0
    5.5327   -0.5757   11.7302 H   0  0  0  0  0  0  0  0  0  0  0  0
    5.8851    0.3904    9.5270 H   0  0  0  0  0  0  0  0  0  0  0  0
   -2.2680   -1.0878    5.6452 H   0  0  0  0  0  0  0  0  0  0  0  0
   -2.4081   -1.7769    7.9564 H   0  0  0  0  0  0  0  0  0  0  0  0
   -1.0721   -3.6241    8.7525 H   0  0  0  0  0  0  0  0  0  0  0  0
    0.1691   -5.4471    8.4134 H   0  0  0  0  0  0  0  0  0  0  0  0
    1.5774   -5.1122    7.4347 H   0  0  0  0  0  0  0  0  0  0  0  0
    0.2737   -6.0791    6.7877 H   0  0  0  0  0  0  0  0  0  0  0  0
    1.1646   -3.6676    3.7722 H   0  0  0  0  0  0  0  0  0  0  0  0
    0.7484   -5.1846    4.5329 H   0  0  0  0  0  0  0  0  0  0  0  0
    2.0436   -4.2080    5.1823 H   0  0  0  0  0  0  0  0  0  0  0  0
  1  2  1  0  0  0  0
  1 95  1  0  0  0  0
  1 96  1  0  0  0  0
  1 97  1  0  0  0  0
  2  3  1  0  0  0  0
  3  4  2  0  0  0  0
  3  5  1  0  0  0  0
  5  6  1  0  0  0  0
  5 98  1  0  0  0  0
  5 99  1  0  0  0  0
  6  7  1  0  0  0  0
  6 87  1  0  0  0  0
  6100  1  1  0  0  0
  7  8  1  0  0  0  0
  7101  1  0  0  0  0
  8  9  2  0  0  0  0
  8 10  1  0  0  0  0
 10 11  1  0  0  0  0
 10 15  2  0  0  0  0
 11 12  2  0  0  0  0
 11102  1  0  0  0  0
 12 13  1  0  0  0  0
 12103  1  0  0  0  0
 13 14  2  0  0  0  0
 13104  1  0  0  0  0
 14 15  1  0  0  0  0
 14105  1  0  0  0  0
 15 16  1  0  0  0  0
 16 17  2  0  0  0  0
 16 18  1  0  0  0  0
 18 19  1  0  0  0  0
 19 20  1  0  0  0  0
 19106  1  0  0  0  0
 19107  1  0  0  0  0
 20 21  1  0  0  0  0
 20108  1  0  0  0  0
 20109  1  0  0  0  0
 21 22  1  0  0  0  0
 22 23  2  0  0  0  0
 22 24  1  0  0  0  0
 24 25  1  0  0  0  0
 24 86  2  0  0  0  0
 25 26  2  0  0  0  0
 25110  1  0  0  0  0
 26 27  1  0  0  0  0
 26111  1  0  0  0  0
 27 28  1  0  0  0  0
 27 85  2  0  0  0  0
 28 29  1  0  0  0  0
 28 79  2  0  0  0  0
 29 30  2  0  0  0  0
 29 84  1  0  0  0  0
 30 31  1  0  0  0  0
 31 32  2  0  0  0  0
 31 83  1  0  0  0  0
 32 33  1  0  0  0  0
 32 44  1  0  0  0  0
 33 34  1  0  0  0  0
 33 42  2  0  0  0  0
 34 35  2  0  0  0  0
 34112  1  0  0  0  0
 35 36  1  0  0  0  0
 35 40  1  0  0  0  0
 36 37  2  0  0  0  0
 36 38  2  0  0  0  0
 36 39  1  0  0  0  0
 40 41  2  0  0  0  0
 40113  1  0  0  0  0
 41 42  1  0  0  0  0
 41114  1  0  0  0  0
 42 43  1  0  0  0  0
 44 45  2  0  0  0  0
 44 48  1  0  0  0  0
 45 46  1  0  0  0  0
 45115  1  0  0  0  0
 46 47  2  0  0  0  0
 46116  1  0  0  0  0
 47 48  1  0  0  0  0
 47 49  1  0  0  0  0
 48117  1  0  0  0  0
 49 50  1  0  0  0  0
 49 61  2  0  0  0  0
 50 51  1  0  0  0  0
 50 59  2  0  0  0  0
 51 52  2  0  0  0  0
 51118  1  0  0  0  0
 52 53  1  0  0  0  0
 52 57  1  0  0  0  0
 53 54  2  0  0  0  0
 53 55  2  0  0  0  0
 53 56  1  0  0  0  0
 57 58  2  0  0  0  0
 57119  1  0  0  0  0
 58 59  1  0  0  0  0
 58120  1  0  0  0  0
 59 60  1  0  0  0  0
 61 62  1  0  0  0  0
 61 82  1  0  0  0  0
 62 63  2  0  0  0  0
 63 64  1  0  0  0  0
 63 81  1  0  0  0  0
 64 65  1  0  0  0  0
 64 76  2  0  0  0  0
 65 66  1  0  0  0  0
 65 74  2  0  0  0  0
 66 67  2  0  0  0  0
 66121  1  0  0  0  0
 67 68  1  0  0  0  0
 67 72  1  0  0  0  0
 68 69  2  0  0  0  0
 68 70  2  0  0  0  0
 68 71  1  0  0  0  0
 72 73  2  0  0  0  0
 72122  1  0  0  0  0
 73 74  1  0  0  0  0
 73123  1  0  0  0  0
 74 75  1  0  0  0  0
 76 77  1  0  0  0  0
 76 80  1  0  0  0  0
 77 78  2  0  0  0  0
 77124  1  0  0  0  0
 78 79  1  0  0  0  0
 78125  1  0  0  0  0
 79 80  1  0  0  0  0
 80126  1  0  0  0  0
 81 82  2  0  0  0  0
 81127  1  0  0  0  0
 82128  1  0  0  0  0
 83 84  2  0  0  0  0
 83129  1  0  0  0  0
 84130  1  0  0  0  0
 85 86  1  0  0  0  0
 85131  1  0  0  0  0
 86132  1  0  0  0  0
 87 88  1  0  0  0  0
 87 93  2  0  0  0  0
 88 89  2  0  0  0  0
 88133  1  0  0  0  0
 89 90  1  0  0  0  0
 89134  1  0  0  0  0
 90 91  2  0  0  0  0
 90135  1  0  0  0  0
 91 92  1  0  0  0  0
 91 93  1  0  0  0  0
 92136  1  0  0  0  0
 92137  1  0  0  0  0
 92138  1  0  0  0  0
 93 94  1  0  0  0  0
 94139  1  0  0  0  0
 94140  1  0  0  0  0
 94141  1  0  0  0  0
M  CHG  3  39  -1  56  -1  71  -1
M  END
$$$$
