5_3_4524
 OpenBabel04152301363D

132142  0  0  1  0  0  0  0  0999 V2000
    1.0819   -0.0501    1.4886 C   0  0  0  0  0  0  0  0  0  0  0  0
    2.2341    0.9327    1.6001 C   0  0  0  0  0  0  0  0  0  0  0  0
    3.2107    0.7822    0.4565 C   0  0  0  0  0  0  0  0  0  0  0  0
    1.9649    2.3168    2.1986 C   0  0  0  0  0  0  0  0  0  0  0  0
    2.6468    3.5927    1.8171 C   0  0  0  0  0  0  0  0  0  0  0  0
    1.8622    4.3374    0.8519 N   0  0  0  0  0  0  0  0  0  0  0  0
    1.5047    5.6644    0.8878 C   0  0  0  0  0  0  0  0  0  0  0  0
    1.1261    6.2279   -0.1323 O   0  0  0  0  0  0  0  0  0  0  0  0
    1.6959    6.3883    2.1705 C   0  0  1  0  0  0  0  0  0  0  0  0
    2.8109    7.4129    2.2096 C   0  0  0  0  0  0  0  0  0  0  0  0
    1.3981    7.8266    2.5122 C   0  0  1  0  0  0  0  0  0  0  0  0
    0.7346    8.8604    1.6931 C   0  0  0  0  0  0  0  0  0  0  0  0
    0.9674   10.0453    1.8966 O   0  0  0  0  0  0  0  0  0  0  0  0
   -0.2091    8.3721    0.8643 O   0  0  0  0  0  0  0  0  0  0  0  0
   -1.0747    9.3315    0.2400 C   0  0  0  0  0  0  0  0  0  0  0  0
   -2.5102    8.8099    0.2884 C   0  0  0  0  0  0  0  0  0  0  0  0
   -2.9112    8.5568    1.6503 O   0  0  0  0  0  0  0  0  0  0  0  0
   -2.6851    7.2864    2.0662 C   0  0  0  0  0  0  0  0  0  0  0  0
   -2.2678    6.3487    1.4085 O   0  0  0  0  0  0  0  0  0  0  0  0
   -2.9327    7.1741    3.5086 C   0  0  0  0  0  0  0  0  0  0  0  0
   -1.8403    6.9354    4.3448 C   0  0  0  0  0  0  0  0  0  0  0  0
   -2.0480    6.6174    5.6838 C   0  0  0  0  0  0  0  0  0  0  0  0
   -3.3511    6.5328    6.1951 C   0  0  0  0  0  0  0  0  0  0  0  0
   -3.5565    6.0431    7.5830 C   0  0  0  0  0  0  0  0  0  0  0  0
   -4.1106    4.6620    7.8145 C   0  0  0  0  0  0  0  0  0  0  0  0
   -4.3819    4.0560    8.9421 N   0  0  0  0  0  0  0  0  0  0  0  0
   -4.9024    2.8137    8.5929 C   0  0  0  0  0  0  0  0  0  0  0  0
   -5.3200    1.8109    9.4053 C   0  0  0  0  0  0  0  0  0  0  0  0
   -5.9219    0.5887    8.7541 C   0  0  0  0  0  0  0  0  0  0  0  0
   -5.1644   -0.2841    7.9538 C   0  0  0  0  0  0  0  0  0  0  0  0
   -5.7885   -1.3699    7.3184 C   0  0  0  0  0  0  0  0  0  0  0  0
   -4.8381   -2.3386    6.1143 S   0  0  0  0  0  0  0  0  0  0  0  0
   -4.4831   -1.3201    5.1291 O   0  0  0  0  0  0  0  0  0  0  0  0
   -3.7392   -2.8559    6.9215 O   0  0  0  0  0  0  0  0  0  0  0  0
   -5.7945   -3.3404    5.6476 O   0  5  0  0  0  0  0  0  0  0  0  0
   -7.1390   -1.6570    7.5329 C   0  0  0  0  0  0  0  0  0  0  0  0
   -7.8866   -0.8206    8.3559 C   0  0  0  0  0  0  0  0  0  0  0  0
   -7.2871    0.2997    8.9339 C   0  0  0  0  0  0  0  0  0  0  0  0
   -8.0646    1.1088    9.6709 F   0  0  0  0  0  0  0  0  0  0  0  0
   -5.2705    1.8699   10.8471 C   0  0  0  0  0  0  0  0  0  0  0  0
   -5.6337    0.8966   11.7626 C   0  0  0  0  0  0  0  0  0  0  0  0
   -5.4794    1.4233   13.0503 C   0  0  0  0  0  0  0  0  0  0  0  0
   -4.9497    2.6990   12.9428 C   0  0  0  0  0  0  0  0  0  0  0  0
   -4.8360    2.9633   11.5857 N   0  0  0  0  0  0  0  0  0  0  0  0
   -4.5659    3.6055   13.9993 C   0  0  0  0  0  0  0  0  0  0  0  0
   -4.7031    3.1446   15.4305 C   0  0  0  0  0  0  0  0  0  0  0  0
   -5.5851    3.7732   16.3274 C   0  0  0  0  0  0  0  0  0  0  0  0
   -5.6016    3.3890   17.6766 C   0  0  0  0  0  0  0  0  0  0  0  0
   -6.5796    4.3695   18.8486 S   0  0  0  0  0  0  0  0  0  0  0  0
   -6.0418    5.7109   18.6460 O   0  0  0  0  0  0  0  0  0  0  0  0
   -7.9426    4.1509   18.3754 O   0  0  0  0  0  0  0  0  0  0  0  0
   -6.2690    3.7661   20.1433 O   0  5  0  0  0  0  0  0  0  0  0  0
   -4.8143    2.3305   18.1367 C   0  0  0  0  0  0  0  0  0  0  0  0
   -3.9780    1.6677   17.2427 C   0  0  0  0  0  0  0  0  0  0  0  0
   -3.9104    2.0886   15.9138 C   0  0  0  0  0  0  0  0  0  0  0  0
   -3.0498    1.4529   15.1025 F   0  0  0  0  0  0  0  0  0  0  0  0
   -4.0396    4.8420   13.8036 C   0  0  0  0  0  0  0  0  0  0  0  0
   -3.7710    5.5085   12.6108 N   0  0  0  0  0  0  0  0  0  0  0  0
   -3.2961    6.6834   12.9575 C   0  0  0  0  0  0  0  0  0  0  0  0
   -2.8113    7.8091   12.0780 C   0  0  0  0  0  0  0  0  0  0  0  0
   -2.3648    9.1016   12.6739 C   0  0  0  0  0  0  0  0  0  0  0  0
   -1.2446    9.1704   13.5169 C   0  0  0  0  0  0  0  0  0  0  0  0
   -0.9199   10.3802   14.1510 C   0  0  0  0  0  0  0  0  0  0  0  0
    0.4132   10.3855   15.3816 S   0  0  0  0  0  0  0  0  0  0  0  0
   -0.0321    9.3510   16.3082 O   0  0  0  0  0  0  0  0  0  0  0  0
    1.5775   10.0577   14.5656 O   0  0  0  0  0  0  0  0  0  0  0  0
    0.3858   11.7489   15.9068 O   0  5  0  0  0  0  0  0  0  0  0  0
   -1.6500   11.5460   13.9084 C   0  0  0  0  0  0  0  0  0  0  0  0
   -2.7360   11.4962   13.0408 C   0  0  0  0  0  0  0  0  0  0  0  0
   -3.0971   10.2827   12.4541 C   0  0  0  0  0  0  0  0  0  0  0  0
   -4.1772   10.2738   11.6566 F   0  0  0  0  0  0  0  0  0  0  0  0
   -2.8298    7.6429   10.7403 C   0  0  0  0  0  0  0  0  0  0  0  0
   -2.3897    8.6293    9.7577 C   0  0  0  0  0  0  0  0  0  0  0  0
   -2.6312    8.1598    8.5229 C   0  0  0  0  0  0  0  0  0  0  0  0
   -3.2024    6.8160    8.6271 C   0  0  0  0  0  0  0  0  0  0  0  0
   -3.2651    6.5839    9.9778 N   0  0  0  0  0  0  0  0  0  0  0  0
   -3.2304    6.9021   14.4076 C   0  0  0  0  0  0  0  0  0  0  0  0
   -3.6461    5.7347   14.8742 C   0  0  0  0  0  0  0  0  0  0  0  0
   -4.9251    2.7621    7.1460 C   0  0  0  0  0  0  0  0  0  0  0  0
   -4.4033    3.8597    6.6169 C   0  0  0  0  0  0  0  0  0  0  0  0
   -4.4413    6.8269    5.3560 C   0  0  0  0  0  0  0  0  0  0  0  0
   -4.2350    7.1371    4.0073 C   0  0  0  0  0  0  0  0  0  0  0  0
    2.7192    1.2778    3.0240 C   0  0  0  0  0  0  0  0  0  0  0  0
    1.9856    0.7331    4.2367 C   0  0  0  0  0  0  0  0  0  0  0  0
    4.2003    1.4277    3.2971 C   0  0  0  0  0  0  0  0  0  0  0  0
    0.8428   -0.2038    0.4571 H   0  0  0  0  0  0  0  0  0  0  0  0
    0.2271    0.3431    1.9981 H   0  0  0  0  0  0  0  0  0  0  0  0
    1.3639   -0.9821    1.9320 H   0  0  0  0  0  0  0  0  0  0  0  0
    2.6767    0.5438   -0.4395 H   0  0  0  0  0  0  0  0  0  0  0  0
    3.9024   -0.0033    0.6792 H   0  0  0  0  0  0  0  0  0  0  0  0
    3.7445    1.6995    0.3203 H   0  0  0  0  0  0  0  0  0  0  0  0
    1.0704    2.8980    2.2820 H   0  0  0  0  0  0  0  0  0  0  0  0
    3.6009    3.3645    1.3899 H   0  0  0  0  0  0  0  0  0  0  0  0
    2.7611    4.1921    2.6961 H   0  0  0  0  0  0  0  0  0  0  0  0
    1.5450    3.8280    0.0714 H   0  0  0  0  0  0  0  0  0  0  0  0
    1.3732    5.4887    2.6517 H   0  0  0  0  0  0  0  0  0  0  0  0
    3.2783    7.7300    1.3008 H   0  0  0  0  0  0  0  0  0  0  0  0
    3.7484    7.4922    2.7193 H   0  0  0  0  0  0  0  0  0  0  0  0
    0.8365    8.2582    3.3142 H   0  0  0  0  0  0  0  0  0  0  0  0
   -0.7784    9.4732   -0.7783 H   0  0  0  0  0  0  0  0  0  0  0  0
   -1.0115   10.2663    0.7567 H   0  0  0  0  0  0  0  0  0  0  0  0
   -2.5732    7.9004   -0.2718 H   0  0  0  0  0  0  0  0  0  0  0  0
   -3.1605    9.5484   -0.1317 H   0  0  0  0  0  0  0  0  0  0  0  0
   -0.8804    6.9947    3.9706 H   0  0  0  0  0  0  0  0  0  0  0  0
   -1.2405    6.4433    6.3024 H   0  0  0  0  0  0  0  0  0  0  0  0
   -4.1515   -0.1272    7.8334 H   0  0  0  0  0  0  0  0  0  0  0  0
   -7.5762   -2.4785    7.0868 H   0  0  0  0  0  0  0  0  0  0  0  0
   -8.8810   -1.0278    8.5384 H   0  0  0  0  0  0  0  0  0  0  0  0
   -5.9621   -0.0548   11.5345 H   0  0  0  0  0  0  0  0  0  0  0  0
   -5.7197    0.9424   13.9312 H   0  0  0  0  0  0  0  0  0  0  0  0
   -4.4966    3.8039   11.2017 H   0  0  0  0  0  0  0  0  0  0  0  0
   -6.2192    4.5159   15.9937 H   0  0  0  0  0  0  0  0  0  0  0  0
   -4.8523    2.0435   19.1273 H   0  0  0  0  0  0  0  0  0  0  0  0
   -3.4097    0.8675   17.5617 H   0  0  0  0  0  0  0  0  0  0  0  0
   -0.6608    8.3333   13.6703 H   0  0  0  0  0  0  0  0  0  0  0  0
   -1.3872   12.4325   14.3668 H   0  0  0  0  0  0  0  0  0  0  0  0
   -3.2723   12.3528   12.8319 H   0  0  0  0  0  0  0  0  0  0  0  0
   -1.9612    9.5421    9.9772 H   0  0  0  0  0  0  0  0  0  0  0  0
   -2.4443    8.6649    7.6426 H   0  0  0  0  0  0  0  0  0  0  0  0
   -3.5908    5.7393   10.3648 H   0  0  0  0  0  0  0  0  0  0  0  0
   -2.9373    7.7444   14.9269 H   0  0  0  0  0  0  0  0  0  0  0  0
   -3.6849    5.4911   15.8763 H   0  0  0  0  0  0  0  0  0  0  0  0
   -5.2994    1.9723    6.5973 H   0  0  0  0  0  0  0  0  0  0  0  0
   -4.2440    4.0910    5.6239 H   0  0  0  0  0  0  0  0  0  0  0  0
   -5.3999    6.8138    5.7379 H   0  0  0  0  0  0  0  0  0  0  0  0
   -5.0368    7.3362    3.3888 H   0  0  0  0  0  0  0  0  0  0  0  0
    0.9439    0.6394    4.0110 H   0  0  0  0  0  0  0  0  0  0  0  0
    2.1131    1.4030    5.0613 H   0  0  0  0  0  0  0  0  0  0  0  0
    2.3829   -0.2269    4.4924 H   0  0  0  0  0  0  0  0  0  0  0  0
    4.6866    1.8125    2.4251 H   0  0  0  0  0  0  0  0  0  0  0  0
    4.6156    0.4733    3.5452 H   0  0  0  0  0  0  0  0  0  0  0  0
    4.3458    2.1032    4.1140 H   0  0  0  0  0  0  0  0  0  0  0  0
  1  2  1  0  0  0  0
  1 86  1  0  0  0  0
  1 87  1  0  0  0  0
  1 88  1  0  0  0  0
  2  3  1  0  0  0  0
  2  4  1  0  0  0  0
  2 83  1  0  0  0  0
  3 89  1  0  0  0  0
  3 90  1  0  0  0  0
  3 91  1  0  0  0  0
  4  5  1  0  0  0  0
  4 83  1  0  0  0  0
  4 92  1  0  0  0  0
  5  6  1  0  0  0  0
  5 93  1  0  0  0  0
  5 94  1  0  0  0  0
  6  7  1  0  0  0  0
  6 95  1  0  0  0  0
  7  8  2  0  0  0  0
  9 10  1  0  0  0  0
  9 11  1  0  0  0  0
  9  7  1  0  0  0  0
  9 96  1  1  0  0  0
 10 11  1  0  0  0  0
 10 97  1  0  0  0  0
 10 98  1  0  0  0  0
 11 12  1  0  0  0  0
 11 99  1  1  0  0  0
 12 13  2  0  0  0  0
 12 14  1  0  0  0  0
 14 15  1  0  0  0  0
 15 16  1  0  0  0  0
 15100  1  0  0  0  0
 15101  1  0  0  0  0
 16 17  1  0  0  0  0
 16102  1  0  0  0  0
 16103  1  0  0  0  0
 17 18  1  0  0  0  0
 18 19  2  0  0  0  0
 18 20  1  0  0  0  0
 20 21  1  0  0  0  0
 20 82  2  0  0  0  0
 21 22  2  0  0  0  0
 21104  1  0  0  0  0
 22 23  1  0  0  0  0
 22105  1  0  0  0  0
 23 24  1  0  0  0  0
 23 81  2  0  0  0  0
 24 25  1  0  0  0  0
 24 75  2  0  0  0  0
 25 26  2  0  0  0  0
 25 80  1  0  0  0  0
 26 27  1  0  0  0  0
 27 28  2  0  0  0  0
 27 79  1  0  0  0  0
 28 29  1  0  0  0  0
 28 40  1  0  0  0  0
 29 30  1  0  0  0  0
 29 38  2  0  0  0  0
 30 31  2  0  0  0  0
 30106  1  0  0  0  0
 31 32  1  0  0  0  0
 31 36  1  0  0  0  0
 32 33  2  0  0  0  0
 32 34  2  0  0  0  0
 32 35  1  0  0  0  0
 36 37  2  0  0  0  0
 36107  1  0  0  0  0
 37 38  1  0  0  0  0
 37108  1  0  0  0  0
 38 39  1  0  0  0  0
 40 41  2  0  0  0  0
 40 44  1  0  0  0  0
 41 42  1  0  0  0  0
 41109  1  0  0  0  0
 42 43  2  0  0  0  0
 42110  1  0  0  0  0
 43 44  1  0  0  0  0
 43 45  1  0  0  0  0
 44111  1  0  0  0  0
 45 46  1  0  0  0  0
 45 57  2  0  0  0  0
 46 47  1  0  0  0  0
 46 55  2  0  0  0  0
 47 48  2  0  0  0  0
 47112  1  0  0  0  0
 48 49  1  0  0  0  0
 48 53  1  0  0  0  0
 49 50  2  0  0  0  0
 49 51  2  0  0  0  0
 49 52  1  0  0  0  0
 53 54  2  0  0  0  0
 53113  1  0  0  0  0
 54 55  1  0  0  0  0
 54114  1  0  0  0  0
 55 56  1  0  0  0  0
 57 58  1  0  0  0  0
 57 78  1  0  0  0  0
 58 59  2  0  0  0  0
 59 60  1  0  0  0  0
 59 77  1  0  0  0  0
 60 61  1  0  0  0  0
 60 72  2  0  0  0  0
 61 62  1  0  0  0  0
 61 70  2  0  0  0  0
 62 63  2  0  0  0  0
 62115  1  0  0  0  0
 63 64  1  0  0  0  0
 63 68  1  0  0  0  0
 64 65  2  0  0  0  0
 64 66  2  0  0  0  0
 64 67  1  0  0  0  0
 68 69  2  0  0  0  0
 68116  1  0  0  0  0
 69 70  1  0  0  0  0
 69117  1  0  0  0  0
 70 71  1  0  0  0  0
 72 73  1  0  0  0  0
 72 76  1  0  0  0  0
 73 74  2  0  0  0  0
 73118  1  0  0  0  0
 74 75  1  0  0  0  0
 74119  1  0  0  0  0
 75 76  1  0  0  0  0
 76120  1  0  0  0  0
 77 78  2  0  0  0  0
 77121  1  0  0  0  0
 78122  1  0  0  0  0
 79 80  2  0  0  0  0
 79123  1  0  0  0  0
 80124  1  0  0  0  0
 81 82  1  0  0  0  0
 81125  1  0  0  0  0
 82126  1  0  0  0  0
 83 84  1  0  0  0  0
 83 85  1  0  0  0  0
 84127  1  0  0  0  0
 84128  1  0  0  0  0
 84129  1  0  0  0  0
 85130  1  0  0  0  0
 85131  1  0  0  0  0
 85132  1  0  0  0  0
M  CHG  3  35  -1  52  -1  67  -1
M  END
$$$$
