5_3_2349
 OpenBabel04152301373D

125135  0  0  1  0  0  0  0  0999 V2000
    1.9670   -0.4176    0.1473 C   0  0  0  0  0  0  0  0  0  0  0  0
    0.8926   -0.3168    1.2475 C   0  0  2  0  0  0  0  0  0  0  0  0
   -0.0859   -1.4819    1.0003 C   0  0  0  0  0  0  0  0  0  0  0  0
   -1.1747   -0.9251    0.0956 C   0  0  0  0  0  0  0  0  0  0  0  0
   -1.0736    0.5977    0.1747 C   0  0  0  0  0  0  0  0  0  0  0  0
   -0.0062    0.9801    1.2566 C   0  0  2  0  0  0  0  0  0  0  0  0
    0.6684    2.2566    0.7034 C   0  0  0  0  0  0  0  0  0  0  0  0
    0.0372    3.1863    0.2099 O   0  0  0  0  0  0  0  0  0  0  0  0
    2.0135    2.2803    0.9139 O   0  0  0  0  0  0  0  0  0  0  0  0
    2.7077    3.4959    0.5638 C   0  0  0  0  0  0  0  0  0  0  0  0
    3.3289    3.3933   -0.8214 C   0  0  0  0  0  0  0  0  0  0  0  0
    2.2873    3.3640   -1.8085 O   0  0  0  0  0  0  0  0  0  0  0  0
    2.3150    2.3160   -2.6570 C   0  0  0  0  0  0  0  0  0  0  0  0
    3.1489    1.4221   -2.6993 O   0  0  0  0  0  0  0  0  0  0  0  0
    1.1968    2.4155   -3.6064 C   0  0  0  0  0  0  0  0  0  0  0  0
   -0.1237    2.5126   -3.1607 C   0  0  0  0  0  0  0  0  0  0  0  0
   -1.1753    2.4225   -4.0724 C   0  0  0  0  0  0  0  0  0  0  0  0
   -0.9090    2.3227   -5.4435 C   0  0  0  0  0  0  0  0  0  0  0  0
   -1.9967    2.1911   -6.4452 C   0  0  0  0  0  0  0  0  0  0  0  0
   -2.0668    0.9495   -7.2903 C   0  0  0  0  0  0  0  0  0  0  0  0
   -2.7104    0.7379   -8.4076 N   0  0  0  0  0  0  0  0  0  0  0  0
   -2.3679   -0.5515   -8.8033 C   0  0  0  0  0  0  0  0  0  0  0  0
   -2.7712   -1.2285   -9.9074 C   0  0  0  0  0  0  0  0  0  0  0  0
   -2.1579   -2.5864  -10.1513 C   0  0  0  0  0  0  0  0  0  0  0  0
   -2.3848   -3.6749   -9.2909 C   0  0  0  0  0  0  0  0  0  0  0  0
   -1.7046   -4.8858   -9.4988 C   0  0  0  0  0  0  0  0  0  0  0  0
   -1.8196   -6.1773   -8.2296 S   0  0  0  0  0  0  0  0  0  0  0  0
   -1.2924   -5.4864   -7.0552 O   0  0  0  0  0  0  0  0  0  0  0  0
   -3.2472   -6.4735   -8.2089 O   0  0  0  0  0  0  0  0  0  0  0  0
   -0.9684   -7.2461   -8.7486 O   0  5  0  0  0  0  0  0  0  0  0  0
   -0.8705   -5.0682  -10.6046 C   0  0  0  0  0  0  0  0  0  0  0  0
   -0.6786   -4.0112  -11.4887 C   0  0  0  0  0  0  0  0  0  0  0  0
   -1.2949   -2.7821  -11.2451 C   0  0  0  0  0  0  0  0  0  0  0  0
   -1.0213   -1.7738  -12.0881 F   0  0  0  0  0  0  0  0  0  0  0  0
   -3.6954   -0.6896  -10.8769 C   0  0  0  0  0  0  0  0  0  0  0  0
   -4.1772   -1.2746  -12.0353 C   0  0  0  0  0  0  0  0  0  0  0  0
   -5.0168   -0.3548  -12.6763 C   0  0  0  0  0  0  0  0  0  0  0  0
   -5.1093    0.7812  -11.8878 C   0  0  0  0  0  0  0  0  0  0  0  0
   -4.2834    0.5676  -10.7955 N   0  0  0  0  0  0  0  0  0  0  0  0
   -5.9011    1.9670  -12.1118 C   0  0  0  0  0  0  0  0  0  0  0  0
   -6.7911    2.0092  -13.3254 C   0  0  0  0  0  0  0  0  0  0  0  0
   -6.5260    2.8688  -14.4047 C   0  0  0  0  0  0  0  0  0  0  0  0
   -7.4248    2.9318  -15.4796 C   0  0  0  0  0  0  0  0  0  0  0  0
   -7.1429    4.1637  -16.7806 S   0  0  0  0  0  0  0  0  0  0  0  0
   -7.1885    5.4142  -16.0295 O   0  0  0  0  0  0  0  0  0  0  0  0
   -5.8343    3.7781  -17.2984 O   0  0  0  0  0  0  0  0  0  0  0  0
   -8.2588    3.9524  -17.7009 O   0  5  0  0  0  0  0  0  0  0  0  0
   -8.5531    2.1078  -15.5289 C   0  0  0  0  0  0  0  0  0  0  0  0
   -8.7997    1.2270  -14.4790 C   0  0  0  0  0  0  0  0  0  0  0  0
   -7.9349    1.1946  -13.3854 C   0  0  0  0  0  0  0  0  0  0  0  0
   -8.2308    0.3583  -12.3776 F   0  0  0  0  0  0  0  0  0  0  0  0
   -5.9554    3.0409  -11.2833 C   0  0  0  0  0  0  0  0  0  0  0  0
   -5.2916    3.2600  -10.0810 N   0  0  0  0  0  0  0  0  0  0  0  0
   -5.6745    4.4484   -9.6733 C   0  0  0  0  0  0  0  0  0  0  0  0
   -5.2739    5.1951   -8.4298 C   0  0  0  0  0  0  0  0  0  0  0  0
   -5.7264    6.5936   -8.1923 C   0  0  0  0  0  0  0  0  0  0  0  0
   -7.0681    6.8818   -7.9037 C   0  0  0  0  0  0  0  0  0  0  0  0
   -7.4695    8.2132   -7.7124 C   0  0  0  0  0  0  0  0  0  0  0  0
   -9.2307    8.5609   -7.4564 S   0  0  0  0  0  0  0  0  0  0  0  0
   -9.8227    8.0151   -8.6726 O   0  0  0  0  0  0  0  0  0  0  0  0
   -9.5077    7.8301   -6.2242 O   0  0  0  0  0  0  0  0  0  0  0  0
   -9.2769   10.0168   -7.3384 O   0  5  0  0  0  0  0  0  0  0  0  0
   -6.5487    9.2634   -7.7559 C   0  0  0  0  0  0  0  0  0  0  0  0
   -5.2124    8.9827   -8.0218 C   0  0  0  0  0  0  0  0  0  0  0  0
   -4.8170    7.6655   -8.2565 C   0  0  0  0  0  0  0  0  0  0  0  0
   -3.5208    7.4409   -8.5252 F   0  0  0  0  0  0  0  0  0  0  0  0
   -4.4341    4.6014   -7.5600 C   0  0  0  0  0  0  0  0  0  0  0  0
   -3.8890    5.2236   -6.3588 C   0  0  0  0  0  0  0  0  0  0  0  0
   -2.9369    4.4267   -5.8494 C   0  0  0  0  0  0  0  0  0  0  0  0
   -2.8657    3.1992   -6.6436 C   0  0  0  0  0  0  0  0  0  0  0  0
   -3.8367    3.3630   -7.5993 N   0  0  0  0  0  0  0  0  0  0  0  0
   -6.6114    5.1258  -10.5771 C   0  0  0  0  0  0  0  0  0  0  0  0
   -6.7705    4.2151  -11.5267 C   0  0  0  0  0  0  0  0  0  0  0  0
   -1.4561   -1.0690   -7.8038 C   0  0  0  0  0  0  0  0  0  0  0  0
   -1.2816   -0.2014   -6.8176 C   0  0  0  0  0  0  0  0  0  0  0  0
    0.4264    2.3057   -5.8843 C   0  0  0  0  0  0  0  0  0  0  0  0
    1.4761    2.3147   -4.9683 C   0  0  0  0  0  0  0  0  0  0  0  0
   -0.6978    1.2473    2.6496 C   0  0  0  0  0  0  0  0  0  0  0  0
   -1.7260    0.3700    3.0806 C   0  0  0  0  0  0  0  0  0  0  0  0
   -2.4269    0.5336    4.2819 C   0  0  0  0  0  0  0  0  0  0  0  0
   -2.1499    1.6143    5.0940 C   0  0  0  0  0  0  0  0  0  0  0  0
   -3.0165    1.8433    6.5597 Cl  0  0  0  0  0  0  0  0  0  0  0  0
   -1.1607    2.5078    4.7232 C   0  0  0  0  0  0  0  0  0  0  0  0
   -0.4227    2.3205    3.5371 C   0  0  0  0  0  0  0  0  0  0  0  0
    0.8220    3.5046    3.3567 Cl  0  0  0  0  0  0  0  0  0  0  0  0
    2.5016   -1.3383    0.2541 H   0  0  0  0  0  0  0  0  0  0  0  0
    2.6480    0.4028    0.2376 H   0  0  0  0  0  0  0  0  0  0  0  0
    1.4974   -0.3873   -0.8137 H   0  0  0  0  0  0  0  0  0  0  0  0
    1.4322   -0.3175    2.1715 H   0  0  0  0  0  0  0  0  0  0  0  0
   -0.5060   -1.8181    1.9252 H   0  0  0  0  0  0  0  0  0  0  0  0
    0.4059   -2.3207    0.5537 H   0  0  0  0  0  0  0  0  0  0  0  0
   -2.1368   -1.2491    0.4337 H   0  0  0  0  0  0  0  0  0  0  0  0
   -1.0521   -1.2677   -0.9106 H   0  0  0  0  0  0  0  0  0  0  0  0
   -2.0239    1.0071    0.4473 H   0  0  0  0  0  0  0  0  0  0  0  0
   -0.7827    0.9916   -0.7767 H   0  0  0  0  0  0  0  0  0  0  0  0
    3.4811    3.6755    1.2811 H   0  0  0  0  0  0  0  0  0  0  0  0
    2.0027    4.3008    0.5610 H   0  0  0  0  0  0  0  0  0  0  0  0
    3.9089    2.4965   -0.8873 H   0  0  0  0  0  0  0  0  0  0  0  0
    3.9616    4.2389   -0.9935 H   0  0  0  0  0  0  0  0  0  0  0  0
   -0.3209    2.6509   -2.1572 H   0  0  0  0  0  0  0  0  0  0  0  0
   -2.1509    2.4294   -3.7361 H   0  0  0  0  0  0  0  0  0  0  0  0
   -3.0504   -3.5842   -8.5075 H   0  0  0  0  0  0  0  0  0  0  0  0
   -0.4031   -5.9745  -10.7635 H   0  0  0  0  0  0  0  0  0  0  0  0
   -0.0826   -4.1352  -12.3220 H   0  0  0  0  0  0  0  0  0  0  0  0
   -3.9557   -2.2256  -12.3694 H   0  0  0  0  0  0  0  0  0  0  0  0
   -5.4875   -0.4988  -13.5834 H   0  0  0  0  0  0  0  0  0  0  0  0
   -4.1346    1.2130  -10.0671 H   0  0  0  0  0  0  0  0  0  0  0  0
   -5.6740    3.4511  -14.4065 H   0  0  0  0  0  0  0  0  0  0  0  0
   -9.1963    2.1519  -16.3347 H   0  0  0  0  0  0  0  0  0  0  0  0
   -9.6193    0.6006  -14.5100 H   0  0  0  0  0  0  0  0  0  0  0  0
   -7.7580    6.1177   -7.8322 H   0  0  0  0  0  0  0  0  0  0  0  0
   -6.8561   10.2350   -7.5928 H   0  0  0  0  0  0  0  0  0  0  0  0
   -4.5171    9.7449   -8.0453 H   0  0  0  0  0  0  0  0  0  0  0  0
   -4.1871    6.1296   -5.9646 H   0  0  0  0  0  0  0  0  0  0  0  0
   -2.3493    4.6444   -5.0294 H   0  0  0  0  0  0  0  0  0  0  0  0
   -4.0813    2.6641   -8.2481 H   0  0  0  0  0  0  0  0  0  0  0  0
   -7.0345    6.0635  -10.4950 H   0  0  0  0  0  0  0  0  0  0  0  0
   -7.3971    4.3277  -12.3390 H   0  0  0  0  0  0  0  0  0  0  0  0
   -1.0011   -1.9940   -7.8534 H   0  0  0  0  0  0  0  0  0  0  0  0
   -0.7378   -0.3056   -5.9467 H   0  0  0  0  0  0  0  0  0  0  0  0
    0.6307    2.2864   -6.8957 H   0  0  0  0  0  0  0  0  0  0  0  0
    2.4525    2.2473   -5.2954 H   0  0  0  0  0  0  0  0  0  0  0  0
   -1.9703   -0.4308    2.4772 H   0  0  0  0  0  0  0  0  0  0  0  0
   -3.1476   -0.1512    4.5587 H   0  0  0  0  0  0  0  0  0  0  0  0
   -0.9604    3.3229    5.3236 H   0  0  0  0  0  0  0  0  0  0  0  0
  1  2  1  0  0  0  0
  1 86  1  0  0  0  0
  1 87  1  0  0  0  0
  1 88  1  0  0  0  0
  2  3  1  0  0  0  0
  2  6  1  0  0  0  0
  2 89  1  1  0  0  0
  3  4  1  0  0  0  0
  3 90  1  0  0  0  0
  3 91  1  0  0  0  0
  4  5  1  0  0  0  0
  4 92  1  0  0  0  0
  4 93  1  0  0  0  0
  5  6  1  0  0  0  0
  5 94  1  0  0  0  0
  5 95  1  0  0  0  0
  6 78  1  0  0  0  0
  6  7  1  6  0  0  0
  7  8  2  0  0  0  0
  7  9  1  0  0  0  0
  9 10  1  0  0  0  0
 10 11  1  0  0  0  0
 10 96  1  0  0  0  0
 10 97  1  0  0  0  0
 11 12  1  0  0  0  0
 11 98  1  0  0  0  0
 11 99  1  0  0  0  0
 12 13  1  0  0  0  0
 13 14  2  0  0  0  0
 13 15  1  0  0  0  0
 15 16  1  0  0  0  0
 15 77  2  0  0  0  0
 16 17  2  0  0  0  0
 16100  1  0  0  0  0
 17 18  1  0  0  0  0
 17101  1  0  0  0  0
 18 19  1  0  0  0  0
 18 76  2  0  0  0  0
 19 20  1  0  0  0  0
 19 70  2  0  0  0  0
 20 21  2  0  0  0  0
 20 75  1  0  0  0  0
 21 22  1  0  0  0  0
 22 23  2  0  0  0  0
 22 74  1  0  0  0  0
 23 24  1  0  0  0  0
 23 35  1  0  0  0  0
 24 25  1  0  0  0  0
 24 33  2  0  0  0  0
 25 26  2  0  0  0  0
 25102  1  0  0  0  0
 26 27  1  0  0  0  0
 26 31  1  0  0  0  0
 27 28  2  0  0  0  0
 27 29  2  0  0  0  0
 27 30  1  0  0  0  0
 31 32  2  0  0  0  0
 31103  1  0  0  0  0
 32 33  1  0  0  0  0
 32104  1  0  0  0  0
 33 34  1  0  0  0  0
 35 36  2  0  0  0  0
 35 39  1  0  0  0  0
 36 37  1  0  0  0  0
 36105  1  0  0  0  0
 37 38  2  0  0  0  0
 37106  1  0  0  0  0
 38 39  1  0  0  0  0
 38 40  1  0  0  0  0
 39107  1  0  0  0  0
 40 41  1  0  0  0  0
 40 52  2  0  0  0  0
 41 42  1  0  0  0  0
 41 50  2  0  0  0  0
 42 43  2  0  0  0  0
 42108  1  0  0  0  0
 43 44  1  0  0  0  0
 43 48  1  0  0  0  0
 44 45  2  0  0  0  0
 44 46  2  0  0  0  0
 44 47  1  0  0  0  0
 48 49  2  0  0  0  0
 48109  1  0  0  0  0
 49 50  1  0  0  0  0
 49110  1  0  0  0  0
 50 51  1  0  0  0  0
 52 53  1  0  0  0  0
 52 73  1  0  0  0  0
 53 54  2  0  0  0  0
 54 55  1  0  0  0  0
 54 72  1  0  0  0  0
 55 56  1  0  0  0  0
 55 67  2  0  0  0  0
 56 57  1  0  0  0  0
 56 65  2  0  0  0  0
 57 58  2  0  0  0  0
 57111  1  0  0  0  0
 58 59  1  0  0  0  0
 58 63  1  0  0  0  0
 59 60  2  0  0  0  0
 59 61  2  0  0  0  0
 59 62  1  0  0  0  0
 63 64  2  0  0  0  0
 63112  1  0  0  0  0
 64 65  1  0  0  0  0
 64113  1  0  0  0  0
 65 66  1  0  0  0  0
 67 68  1  0  0  0  0
 67 71  1  0  0  0  0
 68 69  2  0  0  0  0
 68114  1  0  0  0  0
 69 70  1  0  0  0  0
 69115  1  0  0  0  0
 70 71  1  0  0  0  0
 71116  1  0  0  0  0
 72 73  2  0  0  0  0
 72117  1  0  0  0  0
 73118  1  0  0  0  0
 74 75  2  0  0  0  0
 74119  1  0  0  0  0
 75120  1  0  0  0  0
 76 77  1  0  0  0  0
 76121  1  0  0  0  0
 77122  1  0  0  0  0
 78 79  1  0  0  0  0
 78 84  2  0  0  0  0
 79 80  2  0  0  0  0
 79123  1  0  0  0  0
 80 81  1  0  0  0  0
 80124  1  0  0  0  0
 81 82  1  0  0  0  0
 81 83  2  0  0  0  0
 83 84  1  0  0  0  0
 83125  1  0  0  0  0
 84 85  1  0  0  0  0
M  CHG  3  30  -1  47  -1  62  -1
M  END
$$$$
