5_4_8418
 OpenBabel04152301373D

134143  0  0  1  0  0  0  0  0999 V2000
    1.1643   -1.1356   -4.8201 C   0  0  0  0  0  0  0  0  0  0  0  0
    1.0141   -1.6175   -3.3801 C   0  0  0  0  0  0  0  0  0  0  0  0
    1.5334   -3.0593   -3.1359 C   0  0  0  0  0  0  0  0  0  0  0  0
    3.0055   -3.2790   -3.5469 C   0  0  0  0  0  0  0  0  0  0  0  0
    4.0457   -2.4746   -2.7910 C   0  0  0  0  0  0  0  0  0  0  0  0
    1.1221   -3.6265   -1.7356 C   0  0  2  0  0  0  0  0  0  0  0  0
    1.5101   -2.9115   -0.4287 C   0  0  0  0  0  0  0  0  0  0  0  0
    1.2406   -3.3726    0.6785 O   0  0  0  0  0  0  0  0  0  0  0  0
    2.0976   -1.7051   -0.6079 O   0  0  0  0  0  0  0  0  0  0  0  0
    2.4638   -1.0200    0.6011 C   0  0  0  0  0  0  0  0  0  0  0  0
    1.4626    0.0704    0.9871 C   0  0  0  0  0  0  0  0  0  0  0  0
    0.1385   -0.3550    1.2986 O   0  0  0  0  0  0  0  0  0  0  0  0
   -0.7477   -0.6123    0.2092 C   0  0  0  0  0  0  0  0  0  0  0  0
   -1.3133    0.6113   -0.5194 C   0  0  0  0  0  0  0  0  0  0  0  0
   -0.3153    1.2606   -1.3299 O   0  0  0  0  0  0  0  0  0  0  0  0
    0.0399    2.4981   -0.9106 C   0  0  0  0  0  0  0  0  0  0  0  0
   -0.4428    3.1216    0.0277 O   0  0  0  0  0  0  0  0  0  0  0  0
    1.2497    2.9479   -1.6212 C   0  0  0  0  0  0  0  0  0  0  0  0
    2.3433    3.3561   -0.8462 C   0  0  0  0  0  0  0  0  0  0  0  0
    3.4633    3.9137   -1.4577 C   0  0  0  0  0  0  0  0  0  0  0  0
    3.4865    4.0874   -2.8472 C   0  0  0  0  0  0  0  0  0  0  0  0
    4.5719    4.8892   -3.4635 C   0  0  0  0  0  0  0  0  0  0  0  0
    4.3156    6.3365   -3.7849 C   0  0  0  0  0  0  0  0  0  0  0  0
    5.1005    7.2128   -4.3558 N   0  0  0  0  0  0  0  0  0  0  0  0
    4.3700    8.3954   -4.4134 C   0  0  0  0  0  0  0  0  0  0  0  0
    4.7549    9.6072   -4.8853 C   0  0  0  0  0  0  0  0  0  0  0  0
    3.7344   10.7195   -4.8532 C   0  0  0  0  0  0  0  0  0  0  0  0
    3.2316   11.2317   -3.6441 C   0  0  0  0  0  0  0  0  0  0  0  0
    2.2149   12.1994   -3.6626 C   0  0  0  0  0  0  0  0  0  0  0  0
    1.4083   12.6423   -2.0992 S   0  0  0  0  0  0  0  0  0  0  0  0
    0.9056   11.3468   -1.6486 O   0  0  0  0  0  0  0  0  0  0  0  0
    2.5085   13.2057   -1.3256 O   0  0  0  0  0  0  0  0  0  0  0  0
    0.3769   13.5957   -2.5036 O   0  5  0  0  0  0  0  0  0  0  0  0
    1.7518   12.7404   -4.8642 C   0  0  0  0  0  0  0  0  0  0  0  0
    2.2785   12.2729   -6.0644 C   0  0  0  0  0  0  0  0  0  0  0  0
    3.2357   11.2566   -6.0534 C   0  0  0  0  0  0  0  0  0  0  0  0
    3.6608   10.7915   -7.2387 F   0  0  0  0  0  0  0  0  0  0  0  0
    6.0539    9.8693   -5.4565 C   0  0  0  0  0  0  0  0  0  0  0  0
    6.5561   11.0623   -5.9472 C   0  0  0  0  0  0  0  0  0  0  0  0
    7.8258   10.8172   -6.4829 C   0  0  0  0  0  0  0  0  0  0  0  0
    8.1511    9.4893   -6.2567 C   0  0  0  0  0  0  0  0  0  0  0  0
    7.0529    8.9193   -5.6300 N   0  0  0  0  0  0  0  0  0  0  0  0
    9.3739    8.7933   -6.5841 C   0  0  0  0  0  0  0  0  0  0  0  0
   10.4793    9.5683   -7.2603 C   0  0  0  0  0  0  0  0  0  0  0  0
   10.8973    9.2701   -8.5692 C   0  0  0  0  0  0  0  0  0  0  0  0
   11.9750    9.9684   -9.1351 C   0  0  0  0  0  0  0  0  0  0  0  0
   12.6112    9.4323  -10.7471 S   0  0  0  0  0  0  0  0  0  0  0  0
   12.9813    8.0459  -10.4812 O   0  0  0  0  0  0  0  0  0  0  0  0
   11.4578    9.6281  -11.6193 O   0  0  0  0  0  0  0  0  0  0  0  0
   13.7328   10.3373  -10.9919 O   0  5  0  0  0  0  0  0  0  0  0  0
   12.6000   11.0135   -8.4498 C   0  0  0  0  0  0  0  0  0  0  0  0
   12.1644   11.3421   -7.1694 C   0  0  0  0  0  0  0  0  0  0  0  0
   11.1329   10.6107   -6.5790 C   0  0  0  0  0  0  0  0  0  0  0  0
   10.7766   10.9373   -5.3263 F   0  0  0  0  0  0  0  0  0  0  0  0
    9.6278    7.4934   -6.2835 C   0  0  0  0  0  0  0  0  0  0  0  0
    8.8168    6.5619   -5.6394 N   0  0  0  0  0  0  0  0  0  0  0  0
    9.5123    5.4481   -5.5991 C   0  0  0  0  0  0  0  0  0  0  0  0
    9.1408    4.1164   -4.9929 C   0  0  0  0  0  0  0  0  0  0  0  0
   10.0675    2.9527   -5.0905 C   0  0  0  0  0  0  0  0  0  0  0  0
   11.3182    2.9610   -4.4542 C   0  0  0  0  0  0  0  0  0  0  0  0
   12.2048    1.8886   -4.6423 C   0  0  0  0  0  0  0  0  0  0  0  0
   13.8715    2.0048   -3.9359 S   0  0  0  0  0  0  0  0  0  0  0  0
   14.3792    3.2161   -4.5698 O   0  0  0  0  0  0  0  0  0  0  0  0
   13.5883    2.0976   -2.5076 O   0  0  0  0  0  0  0  0  0  0  0  0
   14.5092    0.7612   -4.3629 O   0  5  0  0  0  0  0  0  0  0  0  0
   11.8466    0.7753   -5.4063 C   0  0  0  0  0  0  0  0  0  0  0  0
   10.5954    0.7447   -6.0131 C   0  0  0  0  0  0  0  0  0  0  0  0
    9.7313    1.8311   -5.8707 C   0  0  0  0  0  0  0  0  0  0  0  0
    8.5478    1.7731   -6.5023 F   0  0  0  0  0  0  0  0  0  0  0  0
    7.9358    3.9803   -4.4032 C   0  0  0  0  0  0  0  0  0  0  0  0
    7.4251    2.7631   -3.7754 C   0  0  0  0  0  0  0  0  0  0  0  0
    6.1553    2.9663   -3.3843 C   0  0  0  0  0  0  0  0  0  0  0  0
    5.7776    4.3430   -3.7008 C   0  0  0  0  0  0  0  0  0  0  0  0
    6.9052    4.8801   -4.2682 N   0  0  0  0  0  0  0  0  0  0  0  0
   10.8330    5.5410   -6.2349 C   0  0  0  0  0  0  0  0  0  0  0  0
   10.8685    6.8148   -6.5977 C   0  0  0  0  0  0  0  0  0  0  0  0
    3.0664    8.1104   -3.8510 C   0  0  0  0  0  0  0  0  0  0  0  0
    2.9936    6.8628   -3.4121 C   0  0  0  0  0  0  0  0  0  0  0  0
    2.4103    3.6213   -3.6247 C   0  0  0  0  0  0  0  0  0  0  0  0
    1.2891    3.0486   -3.0135 C   0  0  0  0  0  0  0  0  0  0  0  0
    1.3738   -5.1352   -1.6116 C   0  0  0  0  0  0  0  0  0  0  0  0
    0.4899   -6.0478   -2.2060 C   0  0  0  0  0  0  0  0  0  0  0  0
    0.6433   -7.4204   -1.9979 C   0  0  0  0  0  0  0  0  0  0  0  0
    1.6783   -7.8978   -1.1956 C   0  0  0  0  0  0  0  0  0  0  0  0
    2.5836   -7.0072   -0.6284 C   0  0  0  0  0  0  0  0  0  0  0  0
    2.4453   -5.6383   -0.8520 C   0  0  0  0  0  0  0  0  0  0  0  0
    0.7850   -0.1386   -4.9040 H   0  0  0  0  0  0  0  0  0  0  0  0
    0.6148   -1.7823   -5.4718 H   0  0  0  0  0  0  0  0  0  0  0  0
    2.1985   -1.1480   -5.0943 H   0  0  0  0  0  0  0  0  0  0  0  0
   -0.0238   -1.5862   -3.1220 H   0  0  0  0  0  0  0  0  0  0  0  0
    1.6110   -0.9683   -2.7741 H   0  0  0  0  0  0  0  0  0  0  0  0
    1.0094   -3.6841   -3.8287 H   0  0  0  0  0  0  0  0  0  0  0  0
    3.0939   -3.0318   -4.5842 H   0  0  0  0  0  0  0  0  0  0  0  0
    3.2149   -4.3023   -3.3149 H   0  0  0  0  0  0  0  0  0  0  0  0
    3.8955   -1.4319   -2.9782 H   0  0  0  0  0  0  0  0  0  0  0  0
    5.0238   -2.7586   -3.1191 H   0  0  0  0  0  0  0  0  0  0  0  0
    3.9517   -2.6659   -1.7424 H   0  0  0  0  0  0  0  0  0  0  0  0
    0.0808   -3.3865   -1.7900 H   0  0  0  0  0  0  0  0  0  0  0  0
    3.4242   -0.5694    0.4619 H   0  0  0  0  0  0  0  0  0  0  0  0
    2.4766   -1.7418    1.3909 H   0  0  0  0  0  0  0  0  0  0  0  0
    1.3983    0.7557    0.1679 H   0  0  0  0  0  0  0  0  0  0  0  0
    1.8425    0.4913    1.8945 H   0  0  0  0  0  0  0  0  0  0  0  0
   -1.5748   -1.1746    0.5895 H   0  0  0  0  0  0  0  0  0  0  0  0
   -0.1566   -1.1262   -0.5198 H   0  0  0  0  0  0  0  0  0  0  0  0
   -1.6775    1.3085    0.2060 H   0  0  0  0  0  0  0  0  0  0  0  0
   -2.1006    0.2798   -1.1638 H   0  0  0  0  0  0  0  0  0  0  0  0
    2.3187    3.2434    0.1793 H   0  0  0  0  0  0  0  0  0  0  0  0
    4.2751    4.1985   -0.8877 H   0  0  0  0  0  0  0  0  0  0  0  0
    3.6096   10.8966   -2.7442 H   0  0  0  0  0  0  0  0  0  0  0  0
    1.0288   13.4768   -4.8619 H   0  0  0  0  0  0  0  0  0  0  0  0
    1.9624   12.6763   -6.9602 H   0  0  0  0  0  0  0  0  0  0  0  0
    6.0766   11.9758   -5.9223 H   0  0  0  0  0  0  0  0  0  0  0  0
    8.4200   11.5093   -6.9654 H   0  0  0  0  0  0  0  0  0  0  0  0
    6.9903    7.9779   -5.3488 H   0  0  0  0  0  0  0  0  0  0  0  0
   10.4124    8.5390   -9.1128 H   0  0  0  0  0  0  0  0  0  0  0  0
   13.3752   11.5354   -8.8877 H   0  0  0  0  0  0  0  0  0  0  0  0
   12.6028   12.1241   -6.6583 H   0  0  0  0  0  0  0  0  0  0  0  0
   11.5857    3.7533   -3.8495 H   0  0  0  0  0  0  0  0  0  0  0  0
   12.5017   -0.0141   -5.5190 H   0  0  0  0  0  0  0  0  0  0  0  0
   10.3074   -0.0777   -6.5661 H   0  0  0  0  0  0  0  0  0  0  0  0
    7.9555    1.8865   -3.6520 H   0  0  0  0  0  0  0  0  0  0  0  0
    5.5464    2.2652   -2.9341 H   0  0  0  0  0  0  0  0  0  0  0  0
    6.9702    5.8206   -4.5518 H   0  0  0  0  0  0  0  0  0  0  0  0
   11.5463    4.8066   -6.3650 H   0  0  0  0  0  0  0  0  0  0  0  0
   11.6793    7.2673   -7.0481 H   0  0  0  0  0  0  0  0  0  0  0  0
    2.2932    8.7919   -3.7988 H   0  0  0  0  0  0  0  0  0  0  0  0
    2.2137    6.3852   -2.9339 H   0  0  0  0  0  0  0  0  0  0  0  0
    2.4480    3.7023   -4.6528 H   0  0  0  0  0  0  0  0  0  0  0  0
    0.5012    2.7050   -3.5846 H   0  0  0  0  0  0  0  0  0  0  0  0
   -0.2792   -5.7026   -2.8013 H   0  0  0  0  0  0  0  0  0  0  0  0
   -0.0122   -8.0837   -2.4399 H   0  0  0  0  0  0  0  0  0  0  0  0
    1.7728   -8.9108   -1.0227 H   0  0  0  0  0  0  0  0  0  0  0  0
    3.3568   -7.3594   -0.0427 H   0  0  0  0  0  0  0  0  0  0  0  0
    3.1385   -4.9851   -0.4548 H   0  0  0  0  0  0  0  0  0  0  0  0
  1  2  1  0  0  0  0
  1 87  1  0  0  0  0
  1 88  1  0  0  0  0
  1 89  1  0  0  0  0
  2  3  1  0  0  0  0
  2 90  1  0  0  0  0
  2 91  1  0  0  0  0
  3  4  1  0  0  0  0
  3 92  1  0  0  0  0
  4  5  1  0  0  0  0
  4 93  1  0  0  0  0
  4 94  1  0  0  0  0
  5 95  1  0  0  0  0
  5 96  1  0  0  0  0
  5 97  1  0  0  0  0
  6 81  1  0  0  0  0
  6  7  1  0  0  0  0
  6  3  1  0  0  0  0
  6 98  1  6  0  0  0
  7  8  2  0  0  0  0
  7  9  1  0  0  0  0
  9 10  1  0  0  0  0
 10 11  1  0  0  0  0
 10 99  1  0  0  0  0
 10100  1  0  0  0  0
 11 12  1  0  0  0  0
 11101  1  0  0  0  0
 11102  1  0  0  0  0
 12 13  1  0  0  0  0
 13 14  1  0  0  0  0
 13103  1  0  0  0  0
 13104  1  0  0  0  0
 14 15  1  0  0  0  0
 14105  1  0  0  0  0
 14106  1  0  0  0  0
 15 16  1  0  0  0  0
 16 17  2  0  0  0  0
 16 18  1  0  0  0  0
 18 19  1  0  0  0  0
 18 80  2  0  0  0  0
 19 20  2  0  0  0  0
 19107  1  0  0  0  0
 20 21  1  0  0  0  0
 20108  1  0  0  0  0
 21 22  1  0  0  0  0
 21 79  2  0  0  0  0
 22 23  1  0  0  0  0
 22 73  2  0  0  0  0
 23 24  2  0  0  0  0
 23 78  1  0  0  0  0
 24 25  1  0  0  0  0
 25 26  2  0  0  0  0
 25 77  1  0  0  0  0
 26 27  1  0  0  0  0
 26 38  1  0  0  0  0
 27 28  1  0  0  0  0
 27 36  2  0  0  0  0
 28 29  2  0  0  0  0
 28109  1  0  0  0  0
 29 30  1  0  0  0  0
 29 34  1  0  0  0  0
 30 31  2  0  0  0  0
 30 32  2  0  0  0  0
 30 33  1  0  0  0  0
 34 35  2  0  0  0  0
 34110  1  0  0  0  0
 35 36  1  0  0  0  0
 35111  1  0  0  0  0
 36 37  1  0  0  0  0
 38 39  2  0  0  0  0
 38 42  1  0  0  0  0
 39 40  1  0  0  0  0
 39112  1  0  0  0  0
 40 41  2  0  0  0  0
 40113  1  0  0  0  0
 41 42  1  0  0  0  0
 41 43  1  0  0  0  0
 42114  1  0  0  0  0
 43 44  1  0  0  0  0
 43 55  2  0  0  0  0
 44 45  1  0  0  0  0
 44 53  2  0  0  0  0
 45 46  2  0  0  0  0
 45115  1  0  0  0  0
 46 47  1  0  0  0  0
 46 51  1  0  0  0  0
 47 48  2  0  0  0  0
 47 49  2  0  0  0  0
 47 50  1  0  0  0  0
 51 52  2  0  0  0  0
 51116  1  0  0  0  0
 52 53  1  0  0  0  0
 52117  1  0  0  0  0
 53 54  1  0  0  0  0
 55 56  1  0  0  0  0
 55 76  1  0  0  0  0
 56 57  2  0  0  0  0
 57 58  1  0  0  0  0
 57 75  1  0  0  0  0
 58 59  1  0  0  0  0
 58 70  2  0  0  0  0
 59 60  1  0  0  0  0
 59 68  2  0  0  0  0
 60 61  2  0  0  0  0
 60118  1  0  0  0  0
 61 62  1  0  0  0  0
 61 66  1  0  0  0  0
 62 63  2  0  0  0  0
 62 64  2  0  0  0  0
 62 65  1  0  0  0  0
 66 67  2  0  0  0  0
 66119  1  0  0  0  0
 67 68  1  0  0  0  0
 67120  1  0  0  0  0
 68 69  1  0  0  0  0
 70 71  1  0  0  0  0
 70 74  1  0  0  0  0
 71 72  2  0  0  0  0
 71121  1  0  0  0  0
 72 73  1  0  0  0  0
 72122  1  0  0  0  0
 73 74  1  0  0  0  0
 74123  1  0  0  0  0
 75 76  2  0  0  0  0
 75124  1  0  0  0  0
 76125  1  0  0  0  0
 77 78  2  0  0  0  0
 77126  1  0  0  0  0
 78127  1  0  0  0  0
 79 80  1  0  0  0  0
 79128  1  0  0  0  0
 80129  1  0  0  0  0
 81 82  1  0  0  0  0
 81 86  2  0  0  0  0
 82 83  2  0  0  0  0
 82130  1  0  0  0  0
 83 84  1  0  0  0  0
 83131  1  0  0  0  0
 84 85  2  0  0  0  0
 84132  1  0  0  0  0
 85 86  1  0  0  0  0
 85133  1  0  0  0  0
 86134  1  0  0  0  0
M  CHG  3  33  -1  50  -1  65  -1
M  END
$$$$
