5_4_343
 OpenBabel04152301373D

150161  0  0  1  0  0  0  0  0999 V2000
    1.2089    0.1318   -0.1162 C   0  0  0  0  0  0  0  0  0  0  0  0
    0.3842    0.6525   -1.2898 C   0  0  1  0  0  0  0  0  0  0  0  0
    0.9821    0.5794   -2.6995 C   0  0  0  0  0  0  0  0  0  0  0  0
    0.4734    1.1567   -3.6572 O   0  0  0  0  0  0  0  0  0  0  0  0
    2.1275   -0.1487   -2.7800 O   0  0  0  0  0  0  0  0  0  0  0  0
    2.6871   -0.2759   -4.1055 C   0  0  0  0  0  0  0  0  0  0  0  0
    2.9090   -1.7328   -4.5183 C   0  0  0  0  0  0  0  0  0  0  0  0
    1.7775   -2.5953   -4.5770 O   0  0  0  0  0  0  0  0  0  0  0  0
    0.9143   -2.6457   -3.4564 C   0  0  0  0  0  0  0  0  0  0  0  0
    1.4880   -3.0304   -2.0904 C   0  0  0  0  0  0  0  0  0  0  0  0
    2.8946   -3.0179   -1.9752 O   0  0  0  0  0  0  0  0  0  0  0  0
    3.4470   -4.2335   -1.7896 C   0  0  0  0  0  0  0  0  0  0  0  0
    2.9012   -5.3122   -1.6417 O   0  0  0  0  0  0  0  0  0  0  0  0
    4.8813   -3.9944   -1.8393 C   0  0  0  0  0  0  0  0  0  0  0  0
    5.5228   -4.0939   -3.0754 C   0  0  0  0  0  0  0  0  0  0  0  0
    6.8807   -3.8362   -3.1449 C   0  0  0  0  0  0  0  0  0  0  0  0
    7.5769   -3.4853   -1.9798 C   0  0  0  0  0  0  0  0  0  0  0  0
    9.0464   -3.4189   -2.0214 C   0  0  0  0  0  0  0  0  0  0  0  0
    9.8189   -4.5876   -1.4903 C   0  0  0  0  0  0  0  0  0  0  0  0
   11.1093   -4.7555   -1.4049 N   0  0  0  0  0  0  0  0  0  0  0  0
   11.2853   -6.0058   -0.8230 C   0  0  0  0  0  0  0  0  0  0  0  0
   12.4479   -6.6504   -0.5655 C   0  0  0  0  0  0  0  0  0  0  0  0
   12.3627   -7.9960    0.1132 C   0  0  0  0  0  0  0  0  0  0  0  0
   11.7195   -9.0945   -0.4859 C   0  0  0  0  0  0  0  0  0  0  0  0
   11.5591  -10.2903    0.2315 C   0  0  0  0  0  0  0  0  0  0  0  0
   10.4737  -11.5741   -0.4514 S   0  0  0  0  0  0  0  0  0  0  0  0
    9.2067  -10.8562   -0.5703 O   0  0  0  0  0  0  0  0  0  0  0  0
   11.1360  -11.9133   -1.7053 O   0  0  0  0  0  0  0  0  0  0  0  0
   10.4952  -12.6200    0.5693 O   0  5  0  0  0  0  0  0  0  0  0  0
   12.1216  -10.4547    1.4990 C   0  0  0  0  0  0  0  0  0  0  0  0
   12.8050   -9.3902    2.0785 C   0  0  0  0  0  0  0  0  0  0  0  0
   12.8931   -8.1712    1.4035 C   0  0  0  0  0  0  0  0  0  0  0  0
   13.4894   -7.1518    2.0416 F   0  0  0  0  0  0  0  0  0  0  0  0
   13.7379   -6.0772   -0.8575 C   0  0  0  0  0  0  0  0  0  0  0  0
   14.9913   -6.6240   -0.6577 C   0  0  0  0  0  0  0  0  0  0  0  0
   15.9446   -5.6600   -1.0020 C   0  0  0  0  0  0  0  0  0  0  0  0
   15.2909   -4.5454   -1.5074 C   0  0  0  0  0  0  0  0  0  0  0  0
   13.9362   -4.8116   -1.4014 N   0  0  0  0  0  0  0  0  0  0  0  0
   15.8698   -3.3388   -2.0543 C   0  0  0  0  0  0  0  0  0  0  0  0
   17.3735   -3.2634   -2.1447 C   0  0  0  0  0  0  0  0  0  0  0  0
   18.1111   -2.3149   -1.4168 C   0  0  0  0  0  0  0  0  0  0  0  0
   19.5000   -2.2334   -1.5878 C   0  0  0  0  0  0  0  0  0  0  0  0
   20.3877   -0.8522   -0.8193 S   0  0  0  0  0  0  0  0  0  0  0  0
   19.7123    0.3025   -1.4027 O   0  0  0  0  0  0  0  0  0  0  0  0
   20.1486   -1.0791    0.6022 O   0  0  0  0  0  0  0  0  0  0  0  0
   21.7691   -1.0485   -1.2547 O   0  5  0  0  0  0  0  0  0  0  0  0
   20.1838   -3.1413   -2.4008 C   0  0  0  0  0  0  0  0  0  0  0  0
   19.4644   -4.1150   -3.0871 C   0  0  0  0  0  0  0  0  0  0  0  0
   18.0748   -4.1518   -2.9794 C   0  0  0  0  0  0  0  0  0  0  0  0
   17.4186   -5.0759   -3.6996 F   0  0  0  0  0  0  0  0  0  0  0  0
   15.1745   -2.2787   -2.5431 C   0  0  0  0  0  0  0  0  0  0  0  0
   13.7995   -2.0862   -2.6339 N   0  0  0  0  0  0  0  0  0  0  0  0
   13.6376   -0.8961   -3.1701 C   0  0  0  0  0  0  0  0  0  0  0  0
   12.3568   -0.1874   -3.5358 C   0  0  0  0  0  0  0  0  0  0  0  0
   12.3635    1.1801   -4.1274 C   0  0  0  0  0  0  0  0  0  0  0  0
   12.9659    1.4293   -5.3697 C   0  0  0  0  0  0  0  0  0  0  0  0
   13.0313    2.7407   -5.8659 C   0  0  0  0  0  0  0  0  0  0  0  0
   13.9811    3.0469   -7.3801 S   0  0  0  0  0  0  0  0  0  0  0  0
   15.2930    2.5231   -7.0177 O   0  0  0  0  0  0  0  0  0  0  0  0
   13.2319    2.2766   -8.3671 O   0  0  0  0  0  0  0  0  0  0  0  0
   13.9092    4.4979   -7.5383 O   0  5  0  0  0  0  0  0  0  0  0  0
   12.4451    3.8070   -5.1806 C   0  0  0  0  0  0  0  0  0  0  0  0
   11.8118    3.5637   -3.9665 C   0  0  0  0  0  0  0  0  0  0  0  0
   11.7969    2.2704   -3.4413 C   0  0  0  0  0  0  0  0  0  0  0  0
   11.2054    2.0907   -2.2492 F   0  0  0  0  0  0  0  0  0  0  0  0
   11.1953   -0.8231   -3.2924 C   0  0  0  0  0  0  0  0  0  0  0  0
    9.8589   -0.3116   -3.5797 C   0  0  0  0  0  0  0  0  0  0  0  0
    8.9486   -1.1881   -3.1251 C   0  0  0  0  0  0  0  0  0  0  0  0
    9.6458   -2.3437   -2.5569 C   0  0  0  0  0  0  0  0  0  0  0  0
   10.9711   -2.0498   -2.7155 N   0  0  0  0  0  0  0  0  0  0  0  0
   14.8886   -0.1848   -3.4498 C   0  0  0  0  0  0  0  0  0  0  0  0
   15.7911   -1.0878   -3.0961 C   0  0  0  0  0  0  0  0  0  0  0  0
    9.9700   -6.5322   -0.5353 C   0  0  0  0  0  0  0  0  0  0  0  0
    9.0256   -5.7176   -0.9772 C   0  0  0  0  0  0  0  0  0  0  0  0
    6.9080   -3.3363   -0.7531 C   0  0  0  0  0  0  0  0  0  0  0  0
    5.5489   -3.6025   -0.6781 C   0  0  0  0  0  0  0  0  0  0  0  0
   -1.1409    0.4310   -1.2771 C   0  0  0  0  0  0  0  0  0  0  0  0
   -1.8478    1.5858   -1.7150 C   0  0  0  0  0  0  0  0  0  0  0  0
   -3.2332    1.6671   -1.7376 C   0  0  0  0  0  0  0  0  0  0  0  0
   -3.9853    0.6170   -1.2472 C   0  0  0  0  0  0  0  0  0  0  0  0
   -5.4613    0.7641   -1.0112 C   0  0  0  0  0  0  0  0  0  0  0  0
   -5.8561    1.2951    0.3788 C   0  0  1  0  0  0  0  0  0  0  0  0
   -5.2938    0.5255    1.5894 C   0  0  0  0  0  0  0  0  0  0  0  0
   -5.1361    1.5532    2.7121 C   0  0  0  0  0  0  0  0  0  0  0  0
   -5.7838    2.8357    2.2011 C   0  0  0  0  0  0  0  0  0  0  0  0
   -5.5716    2.7735    0.6940 C   0  0  1  0  0  0  0  0  0  0  0  0
   -4.2544    3.2137    0.4163 O   0  0  0  0  0  0  0  0  0  0  0  0
   -3.3257   -0.5676   -0.9171 C   0  0  0  0  0  0  0  0  0  0  0  0
   -1.9144   -0.7174   -0.9568 C   0  0  0  0  0  0  0  0  0  0  0  0
   -1.4893   -2.1209   -0.7472 C   0  0  0  0  0  0  0  0  0  0  0  0
   -1.8606   -3.0889   -1.7144 C   0  0  0  0  0  0  0  0  0  0  0  0
   -1.5603   -4.4466   -1.5610 C   0  0  0  0  0  0  0  0  0  0  0  0
   -0.8689   -4.8541   -0.4328 C   0  0  0  0  0  0  0  0  0  0  0  0
   -0.4051   -6.1325   -0.3662 O   0  0  0  0  0  0  0  0  0  0  0  0
   -0.5631   -3.9517    0.5796 C   0  0  0  0  0  0  0  0  0  0  0  0
   -0.9021   -2.5949    0.4351 C   0  0  0  0  0  0  0  0  0  0  0  0
    2.2414    0.3634   -0.2752 H   0  0  0  0  0  0  0  0  0  0  0  0
    1.0890   -0.9286   -0.0387 H   0  0  0  0  0  0  0  0  0  0  0  0
    0.8746    0.5956    0.7883 H   0  0  0  0  0  0  0  0  0  0  0  0
    0.4983    1.6804   -1.0153 H   0  0  0  0  0  0  0  0  0  0  0  0
    3.6278    0.2334   -4.1297 H   0  0  0  0  0  0  0  0  0  0  0  0
    1.9870    0.1507   -4.7931 H   0  0  0  0  0  0  0  0  0  0  0  0
    3.5972   -2.1594   -3.8188 H   0  0  0  0  0  0  0  0  0  0  0  0
    3.2493   -1.6726   -5.5310 H   0  0  0  0  0  0  0  0  0  0  0  0
    0.1466   -3.3553   -3.6845 H   0  0  0  0  0  0  0  0  0  0  0  0
    0.6054   -1.6295   -3.3264 H   0  0  0  0  0  0  0  0  0  0  0  0
    1.1514   -4.0202   -1.8628 H   0  0  0  0  0  0  0  0  0  0  0  0
    1.1404   -2.2780   -1.4136 H   0  0  0  0  0  0  0  0  0  0  0  0
    4.9938   -4.3550   -3.9222 H   0  0  0  0  0  0  0  0  0  0  0  0
    7.3769   -3.9018   -4.0474 H   0  0  0  0  0  0  0  0  0  0  0  0
   11.3657   -9.0211   -1.4526 H   0  0  0  0  0  0  0  0  0  0  0  0
   12.0317  -11.3531    1.9989 H   0  0  0  0  0  0  0  0  0  0  0  0
   13.2457   -9.5014    3.0050 H   0  0  0  0  0  0  0  0  0  0  0  0
   15.1893   -7.5769   -0.3145 H   0  0  0  0  0  0  0  0  0  0  0  0
   16.9663   -5.7612   -0.8973 H   0  0  0  0  0  0  0  0  0  0  0  0
   13.2177   -4.1952   -1.6715 H   0  0  0  0  0  0  0  0  0  0  0  0
   17.6322   -1.6805   -0.7586 H   0  0  0  0  0  0  0  0  0  0  0  0
   21.2106   -3.0903   -2.4912 H   0  0  0  0  0  0  0  0  0  0  0  0
   19.9573   -4.8068   -3.6732 H   0  0  0  0  0  0  0  0  0  0  0  0
   13.3605    0.6492   -5.9181 H   0  0  0  0  0  0  0  0  0  0  0  0
   12.4813    4.7622   -5.5696 H   0  0  0  0  0  0  0  0  0  0  0  0
   11.3550    4.3357   -3.4562 H   0  0  0  0  0  0  0  0  0  0  0  0
    9.6476    0.5796   -4.0553 H   0  0  0  0  0  0  0  0  0  0  0  0
    7.9247   -1.0670   -3.1690 H   0  0  0  0  0  0  0  0  0  0  0  0
   11.6953   -2.6584   -2.4427 H   0  0  0  0  0  0  0  0  0  0  0  0
   15.0290    0.7670   -3.8232 H   0  0  0  0  0  0  0  0  0  0  0  0
   16.8097   -0.9595   -3.2013 H   0  0  0  0  0  0  0  0  0  0  0  0
    9.7913   -7.4251   -0.0496 H   0  0  0  0  0  0  0  0  0  0  0  0
    8.0011   -5.8416   -0.9654 H   0  0  0  0  0  0  0  0  0  0  0  0
    7.4246   -3.0308    0.0865 H   0  0  0  0  0  0  0  0  0  0  0  0
    5.0425   -3.5128    0.2166 H   0  0  0  0  0  0  0  0  0  0  0  0
   -1.3033    2.4034   -2.0315 H   0  0  0  0  0  0  0  0  0  0  0  0
   -3.6983    2.5061   -2.1181 H   0  0  0  0  0  0  0  0  0  0  0  0
   -5.9137   -0.1971   -1.1385 H   0  0  0  0  0  0  0  0  0  0  0  0
   -5.8018    1.4950   -1.7146 H   0  0  0  0  0  0  0  0  0  0  0  0
   -6.9090    1.1427    0.2643 H   0  0  0  0  0  0  0  0  0  0  0  0
   -4.3457    0.0931    1.3464 H   0  0  0  0  0  0  0  0  0  0  0  0
   -5.9438   -0.2732    1.8801 H   0  0  0  0  0  0  0  0  0  0  0  0
   -4.1000    1.7181    2.9225 H   0  0  0  0  0  0  0  0  0  0  0  0
   -5.5940    1.2169    3.6188 H   0  0  0  0  0  0  0  0  0  0  0  0
   -5.3053    3.6970    2.6183 H   0  0  0  0  0  0  0  0  0  0  0  0
   -6.8162    2.9142    2.4710 H   0  0  0  0  0  0  0  0  0  0  0  0
   -6.1940    3.3997    0.0895 H   0  0  0  0  0  0  0  0  0  0  0  0
   -3.6226    2.6888    0.9323 H   0  0  0  0  0  0  0  0  0  0  0  0
   -3.8946   -1.3788   -0.6285 H   0  0  0  0  0  0  0  0  0  0  0  0
   -2.3687   -2.7820   -2.5586 H   0  0  0  0  0  0  0  0  0  0  0  0
   -1.8490   -5.1323   -2.2762 H   0  0  0  0  0  0  0  0  0  0  0  0
   -0.6106   -6.7415   -1.0480 H   0  0  0  0  0  0  0  0  0  0  0  0
   -0.0880   -4.2773    1.4359 H   0  0  0  0  0  0  0  0  0  0  0  0
   -0.7163   -1.9387    1.2096 H   0  0  0  0  0  0  0  0  0  0  0  0
  1  2  1  0  0  0  0
  1 97  1  0  0  0  0
  1 98  1  0  0  0  0
  1 99  1  0  0  0  0
  2  3  1  0  0  0  0
  2 77  1  0  0  0  0
  2100  1  1  0  0  0
  3  4  2  0  0  0  0
  3  5  1  0  0  0  0
  5  6  1  0  0  0  0
  6  7  1  0  0  0  0
  6101  1  0  0  0  0
  6102  1  0  0  0  0
  7  8  1  0  0  0  0
  7103  1  0  0  0  0
  7104  1  0  0  0  0
  8  9  1  0  0  0  0
  9 10  1  0  0  0  0
  9105  1  0  0  0  0
  9106  1  0  0  0  0
 10 11  1  0  0  0  0
 10107  1  0  0  0  0
 10108  1  0  0  0  0
 11 12  1  0  0  0  0
 12 13  2  0  0  0  0
 12 14  1  0  0  0  0
 14 15  1  0  0  0  0
 14 76  2  0  0  0  0
 15 16  2  0  0  0  0
 15109  1  0  0  0  0
 16 17  1  0  0  0  0
 16110  1  0  0  0  0
 17 18  1  0  0  0  0
 17 75  2  0  0  0  0
 18 19  1  0  0  0  0
 18 69  2  0  0  0  0
 19 20  2  0  0  0  0
 19 74  1  0  0  0  0
 20 21  1  0  0  0  0
 21 22  2  0  0  0  0
 21 73  1  0  0  0  0
 22 23  1  0  0  0  0
 22 34  1  0  0  0  0
 23 24  1  0  0  0  0
 23 32  2  0  0  0  0
 24 25  2  0  0  0  0
 24111  1  0  0  0  0
 25 26  1  0  0  0  0
 25 30  1  0  0  0  0
 26 27  2  0  0  0  0
 26 28  2  0  0  0  0
 26 29  1  0  0  0  0
 30 31  2  0  0  0  0
 30112  1  0  0  0  0
 31 32  1  0  0  0  0
 31113  1  0  0  0  0
 32 33  1  0  0  0  0
 34 35  2  0  0  0  0
 34 38  1  0  0  0  0
 35 36  1  0  0  0  0
 35114  1  0  0  0  0
 36 37  2  0  0  0  0
 36115  1  0  0  0  0
 37 38  1  0  0  0  0
 37 39  1  0  0  0  0
 38116  1  0  0  0  0
 39 40  1  0  0  0  0
 39 51  2  0  0  0  0
 40 41  1  0  0  0  0
 40 49  2  0  0  0  0
 41 42  2  0  0  0  0
 41117  1  0  0  0  0
 42 43  1  0  0  0  0
 42 47  1  0  0  0  0
 43 44  2  0  0  0  0
 43 45  2  0  0  0  0
 43 46  1  0  0  0  0
 47 48  2  0  0  0  0
 47118  1  0  0  0  0
 48 49  1  0  0  0  0
 48119  1  0  0  0  0
 49 50  1  0  0  0  0
 51 52  1  0  0  0  0
 51 72  1  0  0  0  0
 52 53  2  0  0  0  0
 53 54  1  0  0  0  0
 53 71  1  0  0  0  0
 54 55  1  0  0  0  0
 54 66  2  0  0  0  0
 55 56  1  0  0  0  0
 55 64  2  0  0  0  0
 56 57  2  0  0  0  0
 56120  1  0  0  0  0
 57 58  1  0  0  0  0
 57 62  1  0  0  0  0
 58 59  2  0  0  0  0
 58 60  2  0  0  0  0
 58 61  1  0  0  0  0
 62 63  2  0  0  0  0
 62121  1  0  0  0  0
 63 64  1  0  0  0  0
 63122  1  0  0  0  0
 64 65  1  0  0  0  0
 66 67  1  0  0  0  0
 66 70  1  0  0  0  0
 67 68  2  0  0  0  0
 67123  1  0  0  0  0
 68 69  1  0  0  0  0
 68124  1  0  0  0  0
 69 70  1  0  0  0  0
 70125  1  0  0  0  0
 71 72  2  0  0  0  0
 71126  1  0  0  0  0
 72127  1  0  0  0  0
 73 74  2  0  0  0  0
 73128  1  0  0  0  0
 74129  1  0  0  0  0
 75 76  1  0  0  0  0
 75130  1  0  0  0  0
 76131  1  0  0  0  0
 77 78  1  0  0  0  0
 77 89  2  0  0  0  0
 78 79  2  0  0  0  0
 78132  1  0  0  0  0
 79 80  1  0  0  0  0
 79133  1  0  0  0  0
 80 81  1  0  0  0  0
 80 88  2  0  0  0  0
 81 82  1  0  0  0  0
 81134  1  0  0  0  0
 81135  1  0  0  0  0
 82 83  1  0  0  0  0
 82 86  1  0  0  0  0
 82136  1  1  0  0  0
 83 84  1  0  0  0  0
 83137  1  0  0  0  0
 83138  1  0  0  0  0
 84 85  1  0  0  0  0
 84139  1  0  0  0  0
 84140  1  0  0  0  0
 85 86  1  0  0  0  0
 85141  1  0  0  0  0
 85142  1  0  0  0  0
 86 87  1  0  0  0  0
 86143  1  6  0  0  0
 87144  1  0  0  0  0
 88 89  1  0  0  0  0
 88145  1  0  0  0  0
 89 90  1  0  0  0  0
 90 91  1  0  0  0  0
 90 96  2  0  0  0  0
 91 92  2  0  0  0  0
 91146  1  0  0  0  0
 92 93  1  0  0  0  0
 92147  1  0  0  0  0
 93 94  1  0  0  0  0
 93 95  2  0  0  0  0
 94148  1  0  0  0  0
 95 96  1  0  0  0  0
 95149  1  0  0  0  0
 96150  1  0  0  0  0
M  CHG  3  29  -1  46  -1  61  -1
M  END
$$$$
