5_4_2115
 OpenBabel04152301363D

135144  0  0  0  0  0  0  0  0999 V2000
    2.9687   -0.7408    0.1673 C   0  0  0  0  0  0  0  0  0  0  0  0
    1.5797   -0.4680   -0.3092 C   0  0  0  0  0  0  0  0  0  0  0  0
    0.5882   -1.4276   -0.3852 C   0  0  0  0  0  0  0  0  0  0  0  0
   -0.8723   -0.8200   -1.0169 S   0  0  0  0  0  0  0  0  0  0  0  0
   -0.1999    0.7379   -1.1979 C   0  0  0  0  0  0  0  0  0  0  0  0
    1.0993    0.8354   -0.7296 C   0  0  0  0  0  0  0  0  0  0  0  0
    1.9298    2.0833   -0.6091 C   0  0  0  0  0  0  0  0  0  0  0  0
    1.3740    3.2080   -1.3140 N   0  0  0  0  0  0  0  0  0  0  0  0
    0.9796    4.4178   -0.8345 C   0  0  0  0  0  0  0  0  0  0  0  0
    0.8538    5.3551   -1.6268 O   0  0  0  0  0  0  0  0  0  0  0  0
    0.7258    4.6286    0.6528 C   0  0  0  0  0  0  0  0  0  0  0  0
   -0.5905    4.0740    1.2849 C   0  0  0  0  0  0  0  0  0  0  0  0
   -0.3282    2.7519    2.0244 C   0  0  0  0  0  0  0  0  0  0  0  0
   -1.0541    5.0875    2.3580 C   0  0  0  0  0  0  0  0  0  0  0  0
   -1.6878    3.8172    0.2348 C   0  0  0  0  0  0  0  0  0  0  0  0
   -1.4832    3.6846   -0.9630 O   0  0  0  0  0  0  0  0  0  0  0  0
   -2.9345    3.7269    0.7796 O   0  0  0  0  0  0  0  0  0  0  0  0
   -3.9694    3.4449   -0.1788 C   0  0  0  0  0  0  0  0  0  0  0  0
   -4.7923    4.6645   -0.6162 C   0  0  0  0  0  0  0  0  0  0  0  0
   -4.1203    5.8370   -1.0588 O   0  0  0  0  0  0  0  0  0  0  0  0
   -3.3802    6.6047   -0.1150 C   0  0  0  0  0  0  0  0  0  0  0  0
   -4.1125    7.2137    1.0884 C   0  0  0  0  0  0  0  0  0  0  0  0
   -4.7164    6.2293    1.9480 O   0  0  0  0  0  0  0  0  0  0  0  0
   -6.0630    6.3391    2.0521 C   0  0  0  0  0  0  0  0  0  0  0  0
   -6.7665    7.2144    1.5556 O   0  0  0  0  0  0  0  0  0  0  0  0
   -6.6462    5.1442    2.6845 C   0  0  0  0  0  0  0  0  0  0  0  0
   -7.6335    4.4565    1.9658 C   0  0  0  0  0  0  0  0  0  0  0  0
   -8.3732    3.4518    2.5810 C   0  0  0  0  0  0  0  0  0  0  0  0
   -8.1473    3.1465    3.9288 C   0  0  0  0  0  0  0  0  0  0  0  0
   -9.1631    2.3412    4.6536 C   0  0  0  0  0  0  0  0  0  0  0  0
  -10.2111    3.0648    5.4591 C   0  0  0  0  0  0  0  0  0  0  0  0
  -11.2109    2.5843    6.1525 N   0  0  0  0  0  0  0  0  0  0  0  0
  -11.8650    3.6895    6.6892 C   0  0  0  0  0  0  0  0  0  0  0  0
  -12.9970    3.7295    7.4363 C   0  0  0  0  0  0  0  0  0  0  0  0
  -13.4680    5.0906    7.8948 C   0  0  0  0  0  0  0  0  0  0  0  0
  -13.8563    6.0861    6.9794 C   0  0  0  0  0  0  0  0  0  0  0  0
  -14.1357    7.3847    7.4325 C   0  0  0  0  0  0  0  0  0  0  0  0
  -14.3062    8.7122    6.2070 S   0  0  0  0  0  0  0  0  0  0  0  0
  -13.0291    8.6282    5.5025 O   0  0  0  0  0  0  0  0  0  0  0  0
  -15.4823    8.2954    5.4527 O   0  0  0  0  0  0  0  0  0  0  0  0
  -14.4800    9.9119    7.0235 O   0  5  0  0  0  0  0  0  0  0  0  0
  -14.1499    7.6879    8.7954 C   0  0  0  0  0  0  0  0  0  0  0  0
  -13.8309    6.6915    9.7130 C   0  0  0  0  0  0  0  0  0  0  0  0
  -13.4655    5.4215    9.2612 C   0  0  0  0  0  0  0  0  0  0  0  0
  -13.0820    4.5230   10.1819 F   0  0  0  0  0  0  0  0  0  0  0  0
  -13.7247    2.5538    7.8491 C   0  0  0  0  0  0  0  0  0  0  0  0
  -14.8710    2.4715    8.6204 C   0  0  0  0  0  0  0  0  0  0  0  0
  -15.1673    1.1187    8.8254 C   0  0  0  0  0  0  0  0  0  0  0  0
  -14.2540    0.3549    8.1161 C   0  0  0  0  0  0  0  0  0  0  0  0
  -13.3686    1.2481    7.5315 N   0  0  0  0  0  0  0  0  0  0  0  0
  -14.2009   -1.0820    7.9732 C   0  0  0  0  0  0  0  0  0  0  0  0
  -15.2957   -1.9040    8.6116 C   0  0  0  0  0  0  0  0  0  0  0  0
  -15.0350   -2.8110    9.6537 C   0  0  0  0  0  0  0  0  0  0  0  0
  -16.0718   -3.6094   10.1615 C   0  0  0  0  0  0  0  0  0  0  0  0
  -15.6651   -4.9082   11.3612 S   0  0  0  0  0  0  0  0  0  0  0  0
  -14.6811   -5.7003   10.6302 O   0  0  0  0  0  0  0  0  0  0  0  0
  -15.1524   -4.1398   12.4908 O   0  0  0  0  0  0  0  0  0  0  0  0
  -16.9457   -5.5732   11.5952 O   0  5  0  0  0  0  0  0  0  0  0  0
  -17.3847   -3.4682    9.7041 C   0  0  0  0  0  0  0  0  0  0  0  0
  -17.6588   -2.5403    8.7038 C   0  0  0  0  0  0  0  0  0  0  0  0
  -16.6206   -1.7879    8.1531 C   0  0  0  0  0  0  0  0  0  0  0  0
  -16.9280   -0.9385    7.1596 F   0  0  0  0  0  0  0  0  0  0  0  0
  -13.2645   -1.7536    7.2539 C   0  0  0  0  0  0  0  0  0  0  0  0
  -12.1918   -1.2546    6.5179 N   0  0  0  0  0  0  0  0  0  0  0  0
  -11.5908   -2.3038    6.0042 C   0  0  0  0  0  0  0  0  0  0  0  0
  -10.3982   -2.3617    5.0795 C   0  0  0  0  0  0  0  0  0  0  0  0
   -9.8777   -3.6726    4.5966 C   0  0  0  0  0  0  0  0  0  0  0  0
  -10.6560   -4.5048    3.7766 C   0  0  0  0  0  0  0  0  0  0  0  0
  -10.1787   -5.7746    3.4154 C   0  0  0  0  0  0  0  0  0  0  0  0
  -11.2737   -6.8834    2.4869 S   0  0  0  0  0  0  0  0  0  0  0  0
  -12.4065   -7.0119    3.3963 O   0  0  0  0  0  0  0  0  0  0  0  0
  -11.5126   -6.1205    1.2663 O   0  0  0  0  0  0  0  0  0  0  0  0
  -10.4689   -8.0913    2.3164 O   0  5  0  0  0  0  0  0  0  0  0  0
   -8.9111   -6.2118    3.8067 C   0  0  0  0  0  0  0  0  0  0  0  0
   -8.1199   -5.3790    4.5916 C   0  0  0  0  0  0  0  0  0  0  0  0
   -8.6110   -4.1362    4.9947 C   0  0  0  0  0  0  0  0  0  0  0  0
   -7.8272   -3.3806    5.7805 F   0  0  0  0  0  0  0  0  0  0  0  0
   -9.7985   -1.2112    4.7127 C   0  0  0  0  0  0  0  0  0  0  0  0
   -8.6509   -1.0924    3.8149 C   0  0  0  0  0  0  0  0  0  0  0  0
   -8.2928    0.2001    3.7216 C   0  0  0  0  0  0  0  0  0  0  0  0
   -9.2094    1.0035    4.5284 C   0  0  0  0  0  0  0  0  0  0  0  0
  -10.0750    0.0871    5.0695 N   0  0  0  0  0  0  0  0  0  0  0  0
  -12.1898   -3.5881    6.3896 C   0  0  0  0  0  0  0  0  0  0  0  0
  -13.2288   -3.1949    7.1115 C   0  0  0  0  0  0  0  0  0  0  0  0
  -11.1132    4.8582    6.2837 C   0  0  0  0  0  0  0  0  0  0  0  0
  -10.1131    4.5322    5.4811 C   0  0  0  0  0  0  0  0  0  0  0  0
   -7.0943    3.7769    4.6189 C   0  0  0  0  0  0  0  0  0  0  0  0
   -6.3414    4.7819    3.9978 C   0  0  0  0  0  0  0  0  0  0  0  0
    3.0636   -1.7774    0.4151 H   0  0  0  0  0  0  0  0  0  0  0  0
    3.1716   -0.1469    1.0339 H   0  0  0  0  0  0  0  0  0  0  0  0
    3.6660   -0.4935   -0.6057 H   0  0  0  0  0  0  0  0  0  0  0  0
    0.7187   -2.4080   -0.0906 H   0  0  0  0  0  0  0  0  0  0  0  0
   -0.7120    1.5304   -1.6159 H   0  0  0  0  0  0  0  0  0  0  0  0
    2.9036    1.8825   -1.0043 H   0  0  0  0  0  0  0  0  0  0  0  0
    1.9611    2.3438    0.4282 H   0  0  0  0  0  0  0  0  0  0  0  0
    1.2632    3.0835   -2.2843 H   0  0  0  0  0  0  0  0  0  0  0  0
    0.7353    5.6845    0.8254 H   0  0  0  0  0  0  0  0  0  0  0  0
    1.4970    4.0583    1.1270 H   0  0  0  0  0  0  0  0  0  0  0  0
    0.4322    2.9008    2.7623 H   0  0  0  0  0  0  0  0  0  0  0  0
   -0.0055    2.0097    1.3245 H   0  0  0  0  0  0  0  0  0  0  0  0
   -1.2287    2.4251    2.5011 H   0  0  0  0  0  0  0  0  0  0  0  0
   -0.2680    5.2400    3.0678 H   0  0  0  0  0  0  0  0  0  0  0  0
   -1.9185    4.7054    2.8597 H   0  0  0  0  0  0  0  0  0  0  0  0
   -1.2964    6.0181    1.8887 H   0  0  0  0  0  0  0  0  0  0  0  0
   -4.6379    2.7303    0.2540 H   0  0  0  0  0  0  0  0  0  0  0  0
   -3.4760    3.0842   -1.0570 H   0  0  0  0  0  0  0  0  0  0  0  0
   -5.3972    4.9485    0.2195 H   0  0  0  0  0  0  0  0  0  0  0  0
   -5.3058    4.3224   -1.4904 H   0  0  0  0  0  0  0  0  0  0  0  0
   -2.9327    7.4147   -0.6521 H   0  0  0  0  0  0  0  0  0  0  0  0
   -2.7116    5.8944    0.3248 H   0  0  0  0  0  0  0  0  0  0  0  0
   -4.8808    7.8635    0.7246 H   0  0  0  0  0  0  0  0  0  0  0  0
   -3.3829    7.7367    1.6707 H   0  0  0  0  0  0  0  0  0  0  0  0
   -7.8121    4.6960    0.9780 H   0  0  0  0  0  0  0  0  0  0  0  0
   -9.0866    2.9328    2.0455 H   0  0  0  0  0  0  0  0  0  0  0  0
  -13.9356    5.8615    5.9753 H   0  0  0  0  0  0  0  0  0  0  0  0
  -14.3935    8.6375    9.1177 H   0  0  0  0  0  0  0  0  0  0  0  0
  -13.8643    6.8906   10.7251 H   0  0  0  0  0  0  0  0  0  0  0  0
  -15.4144    3.2707    8.9825 H   0  0  0  0  0  0  0  0  0  0  0  0
  -15.9367    0.7518    9.4071 H   0  0  0  0  0  0  0  0  0  0  0  0
  -12.5991    0.9941    6.9724 H   0  0  0  0  0  0  0  0  0  0  0  0
  -14.0831   -2.8896   10.0446 H   0  0  0  0  0  0  0  0  0  0  0  0
  -18.1417   -4.0450   10.1032 H   0  0  0  0  0  0  0  0  0  0  0  0
  -18.6266   -2.4091    8.3704 H   0  0  0  0  0  0  0  0  0  0  0  0
  -11.5772   -4.1837    3.4400 H   0  0  0  0  0  0  0  0  0  0  0  0
   -8.5660   -7.1404    3.5174 H   0  0  0  0  0  0  0  0  0  0  0  0
   -7.1739   -5.6789    4.8746 H   0  0  0  0  0  0  0  0  0  0  0  0
   -8.1886   -1.8769    3.3293 H   0  0  0  0  0  0  0  0  0  0  0  0
   -7.5004    0.5653    3.1705 H   0  0  0  0  0  0  0  0  0  0  0  0
  -10.8239    0.3360    5.6581 H   0  0  0  0  0  0  0  0  0  0  0  0
  -11.8821   -4.5457    6.1587 H   0  0  0  0  0  0  0  0  0  0  0  0
  -13.9261   -3.8357    7.5215 H   0  0  0  0  0  0  0  0  0  0  0  0
  -11.3295    5.8221    6.5823 H   0  0  0  0  0  0  0  0  0  0  0  0
   -9.4401    5.1469    4.9970 H   0  0  0  0  0  0  0  0  0  0  0  0
   -6.8758    3.4970    5.5879 H   0  0  0  0  0  0  0  0  0  0  0  0
   -5.5722    5.2479    4.5040 H   0  0  0  0  0  0  0  0  0  0  0  0
  1  2  1  0  0  0  0
  1 89  1  0  0  0  0
  1 90  1  0  0  0  0
  1 91  1  0  0  0  0
  2  3  2  0  0  0  0
  2  6  1  0  0  0  0
  3  4  1  0  0  0  0
  3 92  1  0  0  0  0
  4  5  1  0  0  0  0
  5  6  2  0  0  0  0
  5 93  1  0  0  0  0
  6  7  1  0  0  0  0
  7  8  1  0  0  0  0
  7 94  1  0  0  0  0
  7 95  1  0  0  0  0
  8  9  1  0  0  0  0
  8 96  1  0  0  0  0
  9 10  2  0  0  0  0
  9 11  1  0  0  0  0
 11 12  1  0  0  0  0
 11 97  1  0  0  0  0
 11 98  1  0  0  0  0
 12 13  1  0  0  0  0
 12 14  1  0  0  0  0
 12 15  1  0  0  0  0
 13 99  1  0  0  0  0
 13100  1  0  0  0  0
 13101  1  0  0  0  0
 14102  1  0  0  0  0
 14103  1  0  0  0  0
 14104  1  0  0  0  0
 15 16  2  0  0  0  0
 15 17  1  0  0  0  0
 17 18  1  0  0  0  0
 18 19  1  0  0  0  0
 18105  1  0  0  0  0
 18106  1  0  0  0  0
 19 20  1  0  0  0  0
 19107  1  0  0  0  0
 19108  1  0  0  0  0
 20 21  1  0  0  0  0
 21 22  1  0  0  0  0
 21109  1  0  0  0  0
 21110  1  0  0  0  0
 22 23  1  0  0  0  0
 22111  1  0  0  0  0
 22112  1  0  0  0  0
 23 24  1  0  0  0  0
 24 25  2  0  0  0  0
 24 26  1  0  0  0  0
 26 27  1  0  0  0  0
 26 88  2  0  0  0  0
 27 28  2  0  0  0  0
 27113  1  0  0  0  0
 28 29  1  0  0  0  0
 28114  1  0  0  0  0
 29 30  1  0  0  0  0
 29 87  2  0  0  0  0
 30 31  1  0  0  0  0
 30 81  2  0  0  0  0
 31 32  2  0  0  0  0
 31 86  1  0  0  0  0
 32 33  1  0  0  0  0
 33 34  2  0  0  0  0
 33 85  1  0  0  0  0
 34 35  1  0  0  0  0
 34 46  1  0  0  0  0
 35 36  1  0  0  0  0
 35 44  2  0  0  0  0
 36 37  2  0  0  0  0
 36115  1  0  0  0  0
 37 38  1  0  0  0  0
 37 42  1  0  0  0  0
 38 39  2  0  0  0  0
 38 40  2  0  0  0  0
 38 41  1  0  0  0  0
 42 43  2  0  0  0  0
 42116  1  0  0  0  0
 43 44  1  0  0  0  0
 43117  1  0  0  0  0
 44 45  1  0  0  0  0
 46 47  2  0  0  0  0
 46 50  1  0  0  0  0
 47 48  1  0  0  0  0
 47118  1  0  0  0  0
 48 49  2  0  0  0  0
 48119  1  0  0  0  0
 49 50  1  0  0  0  0
 49 51  1  0  0  0  0
 50120  1  0  0  0  0
 51 52  1  0  0  0  0
 51 63  2  0  0  0  0
 52 53  1  0  0  0  0
 52 61  2  0  0  0  0
 53 54  2  0  0  0  0
 53121  1  0  0  0  0
 54 55  1  0  0  0  0
 54 59  1  0  0  0  0
 55 56  2  0  0  0  0
 55 57  2  0  0  0  0
 55 58  1  0  0  0  0
 59 60  2  0  0  0  0
 59122  1  0  0  0  0
 60 61  1  0  0  0  0
 60123  1  0  0  0  0
 61 62  1  0  0  0  0
 63 64  1  0  0  0  0
 63 84  1  0  0  0  0
 64 65  2  0  0  0  0
 65 66  1  0  0  0  0
 65 83  1  0  0  0  0
 66 67  1  0  0  0  0
 66 78  2  0  0  0  0
 67 68  1  0  0  0  0
 67 76  2  0  0  0  0
 68 69  2  0  0  0  0
 68124  1  0  0  0  0
 69 70  1  0  0  0  0
 69 74  1  0  0  0  0
 70 71  2  0  0  0  0
 70 72  2  0  0  0  0
 70 73  1  0  0  0  0
 74 75  2  0  0  0  0
 74125  1  0  0  0  0
 75 76  1  0  0  0  0
 75126  1  0  0  0  0
 76 77  1  0  0  0  0
 78 79  1  0  0  0  0
 78 82  1  0  0  0  0
 79 80  2  0  0  0  0
 79127  1  0  0  0  0
 80 81  1  0  0  0  0
 80128  1  0  0  0  0
 81 82  1  0  0  0  0
 82129  1  0  0  0  0
 83 84  2  0  0  0  0
 83130  1  0  0  0  0
 84131  1  0  0  0  0
 85 86  2  0  0  0  0
 85132  1  0  0  0  0
 86133  1  0  0  0  0
 87 88  1  0  0  0  0
 87134  1  0  0  0  0
 88135  1  0  0  0  0
M  CHG  3  41  -1  58  -1  73  -1
M  END
$$$$
