5_4_9577
 OpenBabel04152301373D

136146  0  0  1  0  0  0  0  0999 V2000
    0.9626   -1.2235    0.5260 O   0  0  0  0  0  0  0  0  0  0  0  0
    2.1844   -1.1165    0.4330 C   0  0  0  0  0  0  0  0  0  0  0  0
    2.7302   -0.9844   -0.7992 O   0  0  0  0  0  0  0  0  0  0  0  0
    4.1140   -0.7778   -1.1024 C   0  0  0  0  0  0  0  0  0  0  0  0
    4.4076    0.7123   -1.2887 C   0  0  0  0  0  0  0  0  0  0  0  0
    4.0466    1.5786   -0.2132 O   0  0  0  0  0  0  0  0  0  0  0  0
    2.6824    1.9992   -0.1358 C   0  0  0  0  0  0  0  0  0  0  0  0
    2.6417    3.5248   -0.0729 C   0  0  0  0  0  0  0  0  0  0  0  0
    3.1854    4.0052   -1.3087 O   0  0  0  0  0  0  0  0  0  0  0  0
    4.5473    4.1020   -1.3302 C   0  0  0  0  0  0  0  0  0  0  0  0
    5.2618    4.3271   -0.3630 O   0  0  0  0  0  0  0  0  0  0  0  0
    5.0245    3.8767   -2.7527 C   0  0  2  0  0  0  0  0  0  0  0  0
    6.4121    3.2140   -2.7654 C   0  0  0  0  0  0  0  0  0  0  0  0
    7.2430    3.3729   -4.0290 C   0  0  0  0  0  0  0  0  0  0  0  0
    8.0291    4.6738   -4.0421 C   0  0  0  0  0  0  0  0  0  0  0  0
    7.2054    5.9268   -4.2999 C   0  0  0  0  0  0  0  0  0  0  0  0
    6.0270    6.1591   -3.3612 C   0  0  0  0  0  0  0  0  0  0  0  0
    4.8337    5.2035   -3.4909 C   0  0  1  0  0  0  0  0  0  0  0  0
    4.4172    4.9581   -4.8739 N   0  0  0  0  0  0  0  0  0  0  0  0
    3.1523    4.7657   -5.3685 C   0  0  0  0  0  0  0  0  0  0  0  0
    3.0044    4.4163   -6.5364 O   0  0  0  0  0  0  0  0  0  0  0  0
    1.9741    5.0285   -4.4955 C   0  0  0  0  0  0  0  0  0  0  0  0
    1.0004    6.1099   -4.9084 C   0  0  0  0  0  0  0  0  0  0  0  0
    0.5728    4.6724   -4.9395 C   0  0  0  0  0  0  0  0  0  0  0  0
    2.9911   -1.1319    1.6904 C   0  0  0  0  0  0  0  0  0  0  0  0
    4.1942   -0.4488    1.8733 C   0  0  0  0  0  0  0  0  0  0  0  0
    4.8625   -0.4484    3.0763 C   0  0  0  0  0  0  0  0  0  0  0  0
    4.3121   -1.1106    4.1612 C   0  0  0  0  0  0  0  0  0  0  0  0
    5.1443   -1.1637    5.3665 C   0  0  0  0  0  0  0  0  0  0  0  0
    5.9078   -2.4209    5.6204 C   0  0  0  0  0  0  0  0  0  0  0  0
    6.6792   -2.7300    6.6217 N   0  0  0  0  0  0  0  0  0  0  0  0
    7.1318   -4.0160    6.3565 C   0  0  0  0  0  0  0  0  0  0  0  0
    7.9693   -4.7673    7.1077 C   0  0  0  0  0  0  0  0  0  0  0  0
    8.2223   -6.1770    6.6393 C   0  0  0  0  0  0  0  0  0  0  0  0
    8.8665   -6.4509    5.4189 C   0  0  0  0  0  0  0  0  0  0  0  0
    8.8964   -7.7642    4.9238 C   0  0  0  0  0  0  0  0  0  0  0  0
    9.4296   -8.0333    3.2098 S   0  0  0  0  0  0  0  0  0  0  0  0
    8.4432   -7.2500    2.4686 O   0  0  0  0  0  0  0  0  0  0  0  0
   10.7893   -7.5069    3.2138 O   0  0  0  0  0  0  0  0  0  0  0  0
    9.3207   -9.4806    3.0392 O   0  5  0  0  0  0  0  0  0  0  0  0
    8.3999   -8.8325    5.6743 C   0  0  0  0  0  0  0  0  0  0  0  0
    7.8177   -8.5768    6.9121 C   0  0  0  0  0  0  0  0  0  0  0  0
    7.7057   -7.2622    7.3684 C   0  0  0  0  0  0  0  0  0  0  0  0
    7.0449   -7.0598    8.5192 F   0  0  0  0  0  0  0  0  0  0  0  0
    8.5118   -4.2940    8.3546 C   0  0  0  0  0  0  0  0  0  0  0  0
    9.2742   -4.9713    9.2851 C   0  0  0  0  0  0  0  0  0  0  0  0
    9.4998   -4.1105   10.3655 C   0  0  0  0  0  0  0  0  0  0  0  0
    8.9549   -2.8673   10.0730 C   0  0  0  0  0  0  0  0  0  0  0  0
    8.3359   -3.0010    8.8439 N   0  0  0  0  0  0  0  0  0  0  0  0
    9.0148   -1.6562   10.8605 C   0  0  0  0  0  0  0  0  0  0  0  0
    9.8169   -1.7006   12.1337 C   0  0  0  0  0  0  0  0  0  0  0  0
    9.2125   -1.5448   13.3914 C   0  0  0  0  0  0  0  0  0  0  0  0
   10.0079   -1.5243   14.5438 C   0  0  0  0  0  0  0  0  0  0  0  0
    9.2308   -1.0903   16.1222 S   0  0  0  0  0  0  0  0  0  0  0  0
    8.6842    0.2322   15.8363 O   0  0  0  0  0  0  0  0  0  0  0  0
    8.2534   -2.1603   16.2937 O   0  0  0  0  0  0  0  0  0  0  0  0
   10.3447   -1.1108   17.0684 O   0  5  0  0  0  0  0  0  0  0  0  0
   11.3857   -1.7497   14.4763 C   0  0  0  0  0  0  0  0  0  0  0  0
   11.9832   -1.9524   13.2356 C   0  0  0  0  0  0  0  0  0  0  0  0
   11.2076   -1.8980   12.0796 C   0  0  0  0  0  0  0  0  0  0  0  0
   11.8316   -2.0492   10.9001 F   0  0  0  0  0  0  0  0  0  0  0  0
    8.4533   -0.4602   10.5428 C   0  0  0  0  0  0  0  0  0  0  0  0
    7.7036   -0.0985    9.4301 N   0  0  0  0  0  0  0  0  0  0  0  0
    7.3736    1.1630    9.6117 C   0  0  0  0  0  0  0  0  0  0  0  0
    6.5813    2.0726    8.7047 C   0  0  0  0  0  0  0  0  0  0  0  0
    6.2851    3.4892    9.0729 C   0  0  0  0  0  0  0  0  0  0  0  0
    7.3131    4.4119    9.3195 C   0  0  0  0  0  0  0  0  0  0  0  0
    7.0040    5.6965    9.7982 C   0  0  0  0  0  0  0  0  0  0  0  0
    8.3628    6.7739   10.3317 S   0  0  0  0  0  0  0  0  0  0  0  0
    9.0457    5.9288   11.3045 O   0  0  0  0  0  0  0  0  0  0  0  0
    9.0703    7.0114    9.0781 O   0  0  0  0  0  0  0  0  0  0  0  0
    7.6757    7.9373   10.8887 O   0  5  0  0  0  0  0  0  0  0  0  0
    5.6815    6.1144    9.9607 C   0  0  0  0  0  0  0  0  0  0  0  0
    4.6537    5.2256    9.6710 C   0  0  0  0  0  0  0  0  0  0  0  0
    4.9587    3.9260    9.2626 C   0  0  0  0  0  0  0  0  0  0  0  0
    3.9285    3.0898    9.0554 F   0  0  0  0  0  0  0  0  0  0  0  0
    6.0719    1.5187    7.5888 C   0  0  0  0  0  0  0  0  0  0  0  0
    5.2497    2.1933    6.5938 C   0  0  0  0  0  0  0  0  0  0  0  0
    4.7830    1.2794    5.7290 C   0  0  0  0  0  0  0  0  0  0  0  0
    5.3550   -0.0317    6.0612 C   0  0  0  0  0  0  0  0  0  0  0  0
    6.1371    0.2159    7.1525 N   0  0  0  0  0  0  0  0  0  0  0  0
    7.8522    1.7374   10.8708 C   0  0  0  0  0  0  0  0  0  0  0  0
    8.5439    0.7262   11.3743 C   0  0  0  0  0  0  0  0  0  0  0  0
    6.5356   -4.4353    5.1087 C   0  0  0  0  0  0  0  0  0  0  0  0
    5.8000   -3.4676    4.5885 C   0  0  0  0  0  0  0  0  0  0  0  0
    3.0995   -1.7945    4.0279 C   0  0  0  0  0  0  0  0  0  0  0  0
    2.4467   -1.8082    2.7921 C   0  0  0  0  0  0  0  0  0  0  0  0
    4.3582   -1.2998   -2.0039 H   0  0  0  0  0  0  0  0  0  0  0  0
    4.7041   -1.1468   -0.2897 H   0  0  0  0  0  0  0  0  0  0  0  0
    3.8793    1.0399   -2.1596 H   0  0  0  0  0  0  0  0  0  0  0  0
    5.4731    0.7812   -1.3583 H   0  0  0  0  0  0  0  0  0  0  0  0
    2.2292    1.5906    0.7432 H   0  0  0  0  0  0  0  0  0  0  0  0
    2.1463    1.6559   -0.9958 H   0  0  0  0  0  0  0  0  0  0  0  0
    3.2300    3.8753    0.7493 H   0  0  0  0  0  0  0  0  0  0  0  0
    1.6411    3.8765    0.0686 H   0  0  0  0  0  0  0  0  0  0  0  0
    4.4545    3.1573   -3.3027 H   0  0  0  0  0  0  0  0  0  0  0  0
    6.2705    2.1660   -2.6022 H   0  0  0  0  0  0  0  0  0  0  0  0
    6.9676    3.7191   -2.0030 H   0  0  0  0  0  0  0  0  0  0  0  0
    6.5886    3.3577   -4.8754 H   0  0  0  0  0  0  0  0  0  0  0  0
    7.9447    2.5658   -4.0633 H   0  0  0  0  0  0  0  0  0  0  0  0
    8.7728    4.6033   -4.8082 H   0  0  0  0  0  0  0  0  0  0  0  0
    8.4367    4.7839   -3.0589 H   0  0  0  0  0  0  0  0  0  0  0  0
    6.8222    5.8668   -5.2971 H   0  0  0  0  0  0  0  0  0  0  0  0
    7.8713    6.7478   -4.1342 H   0  0  0  0  0  0  0  0  0  0  0  0
    5.6663    7.1513   -3.5355 H   0  0  0  0  0  0  0  0  0  0  0  0
    6.4158    5.9862   -2.3794 H   0  0  0  0  0  0  0  0  0  0  0  0
    4.0396    5.7324   -3.0065 H   0  0  0  0  0  0  0  0  0  0  0  0
    5.1433    4.9271   -5.5380 H   0  0  0  0  0  0  0  0  0  0  0  0
    2.5597    4.8008   -3.6294 H   0  0  0  0  0  0  0  0  0  0  0  0
    1.1504    6.6426   -5.8242 H   0  0  0  0  0  0  0  0  0  0  0  0
    0.6225    7.0004   -4.4511 H   0  0  0  0  0  0  0  0  0  0  0  0
   -0.1380    4.3109   -4.2261 H   0  0  0  0  0  0  0  0  0  0  0  0
    0.1582    4.0239   -5.6828 H   0  0  0  0  0  0  0  0  0  0  0  0
    4.5964    0.0738    1.0795 H   0  0  0  0  0  0  0  0  0  0  0  0
    5.7662    0.0412    3.1693 H   0  0  0  0  0  0  0  0  0  0  0  0
    9.3161   -5.6880    4.8888 H   0  0  0  0  0  0  0  0  0  0  0  0
    8.4639   -9.7981    5.3158 H   0  0  0  0  0  0  0  0  0  0  0  0
    7.4697   -9.3569    7.4912 H   0  0  0  0  0  0  0  0  0  0  0  0
    9.6172   -5.9409    9.1993 H   0  0  0  0  0  0  0  0  0  0  0  0
    9.9914   -4.3595   11.2380 H   0  0  0  0  0  0  0  0  0  0  0  0
    7.8421   -2.2860    8.3812 H   0  0  0  0  0  0  0  0  0  0  0  0
    8.1880   -1.4460   13.4662 H   0  0  0  0  0  0  0  0  0  0  0  0
   11.9541   -1.7657   15.3375 H   0  0  0  0  0  0  0  0  0  0  0  0
   12.9957   -2.1420   13.1724 H   0  0  0  0  0  0  0  0  0  0  0  0
    8.2960    4.1472    9.1494 H   0  0  0  0  0  0  0  0  0  0  0  0
    5.4708    7.0691   10.2910 H   0  0  0  0  0  0  0  0  0  0  0  0
    3.6698    5.5246    9.7573 H   0  0  0  0  0  0  0  0  0  0  0  0
    5.0577    3.2067    6.5595 H   0  0  0  0  0  0  0  0  0  0  0  0
    4.1273    1.4678    4.9547 H   0  0  0  0  0  0  0  0  0  0  0  0
    6.6937   -0.4713    7.5851 H   0  0  0  0  0  0  0  0  0  0  0  0
    7.6930    2.6791   11.2617 H   0  0  0  0  0  0  0  0  0  0  0  0
    9.0829    0.7759   12.2529 H   0  0  0  0  0  0  0  0  0  0  0  0
    6.6664   -5.3653    4.6810 H   0  0  0  0  0  0  0  0  0  0  0  0
    5.2852   -3.4499    3.6942 H   0  0  0  0  0  0  0  0  0  0  0  0
    2.6891   -2.2861    4.8372 H   0  0  0  0  0  0  0  0  0  0  0  0
    1.5566   -2.3202    2.6893 H   0  0  0  0  0  0  0  0  0  0  0  0
  1  2  2  0  0  0  0
  2  3  1  0  0  0  0
  2 25  1  0  0  0  0
  3  4  1  0  0  0  0
  4  5  1  0  0  0  0
  4 88  1  0  0  0  0
  4 89  1  0  0  0  0
  5  6  1  0  0  0  0
  5 90  1  0  0  0  0
  5 91  1  0  0  0  0
  6  7  1  0  0  0  0
  7  8  1  0  0  0  0
  7 92  1  0  0  0  0
  7 93  1  0  0  0  0
  8  9  1  0  0  0  0
  8 94  1  0  0  0  0
  8 95  1  0  0  0  0
  9 10  1  0  0  0  0
 10 11  2  0  0  0  0
 10 12  1  0  0  0  0
 12 13  1  0  0  0  0
 12 18  1  0  0  0  0
 12 96  1  6  0  0  0
 13 14  1  0  0  0  0
 13 97  1  0  0  0  0
 13 98  1  0  0  0  0
 14 15  1  0  0  0  0
 14 99  1  0  0  0  0
 14100  1  0  0  0  0
 15 16  1  0  0  0  0
 15101  1  0  0  0  0
 15102  1  0  0  0  0
 16 17  1  0  0  0  0
 16103  1  0  0  0  0
 16104  1  0  0  0  0
 17 18  1  0  0  0  0
 17105  1  0  0  0  0
 17106  1  0  0  0  0
 18 19  1  0  0  0  0
 18107  1  1  0  0  0
 19 20  1  0  0  0  0
 19108  1  0  0  0  0
 20 21  2  0  0  0  0
 20 22  1  0  0  0  0
 22 23  1  0  0  0  0
 22 24  1  0  0  0  0
 22109  1  0  0  0  0
 23 24  1  0  0  0  0
 23110  1  0  0  0  0
 23111  1  0  0  0  0
 24112  1  0  0  0  0
 24113  1  0  0  0  0
 25 26  1  0  0  0  0
 25 87  2  0  0  0  0
 26 27  2  0  0  0  0
 26114  1  0  0  0  0
 27 28  1  0  0  0  0
 27115  1  0  0  0  0
 28 29  1  0  0  0  0
 28 86  2  0  0  0  0
 29 30  1  0  0  0  0
 29 80  2  0  0  0  0
 30 31  2  0  0  0  0
 30 85  1  0  0  0  0
 31 32  1  0  0  0  0
 32 33  2  0  0  0  0
 32 84  1  0  0  0  0
 33 34  1  0  0  0  0
 33 45  1  0  0  0  0
 34 35  1  0  0  0  0
 34 43  2  0  0  0  0
 35 36  2  0  0  0  0
 35116  1  0  0  0  0
 36 37  1  0  0  0  0
 36 41  1  0  0  0  0
 37 38  2  0  0  0  0
 37 39  2  0  0  0  0
 37 40  1  0  0  0  0
 41 42  2  0  0  0  0
 41117  1  0  0  0  0
 42 43  1  0  0  0  0
 42118  1  0  0  0  0
 43 44  1  0  0  0  0
 45 46  2  0  0  0  0
 45 49  1  0  0  0  0
 46 47  1  0  0  0  0
 46119  1  0  0  0  0
 47 48  2  0  0  0  0
 47120  1  0  0  0  0
 48 49  1  0  0  0  0
 48 50  1  0  0  0  0
 49121  1  0  0  0  0
 50 51  1  0  0  0  0
 50 62  2  0  0  0  0
 51 52  1  0  0  0  0
 51 60  2  0  0  0  0
 52 53  2  0  0  0  0
 52122  1  0  0  0  0
 53 54  1  0  0  0  0
 53 58  1  0  0  0  0
 54 55  2  0  0  0  0
 54 56  2  0  0  0  0
 54 57  1  0  0  0  0
 58 59  2  0  0  0  0
 58123  1  0  0  0  0
 59 60  1  0  0  0  0
 59124  1  0  0  0  0
 60 61  1  0  0  0  0
 62 63  1  0  0  0  0
 62 83  1  0  0  0  0
 63 64  2  0  0  0  0
 64 65  1  0  0  0  0
 64 82  1  0  0  0  0
 65 66  1  0  0  0  0
 65 77  2  0  0  0  0
 66 67  1  0  0  0  0
 66 75  2  0  0  0  0
 67 68  2  0  0  0  0
 67125  1  0  0  0  0
 68 69  1  0  0  0  0
 68 73  1  0  0  0  0
 69 70  2  0  0  0  0
 69 71  2  0  0  0  0
 69 72  1  0  0  0  0
 73 74  2  0  0  0  0
 73126  1  0  0  0  0
 74 75  1  0  0  0  0
 74127  1  0  0  0  0
 75 76  1  0  0  0  0
 77 78  1  0  0  0  0
 77 81  1  0  0  0  0
 78 79  2  0  0  0  0
 78128  1  0  0  0  0
 79 80  1  0  0  0  0
 79129  1  0  0  0  0
 80 81  1  0  0  0  0
 81130  1  0  0  0  0
 82 83  2  0  0  0  0
 82131  1  0  0  0  0
 83132  1  0  0  0  0
 84 85  2  0  0  0  0
 84133  1  0  0  0  0
 85134  1  0  0  0  0
 86 87  1  0  0  0  0
 86135  1  0  0  0  0
 87136  1  0  0  0  0
M  CHG  3  40  -1  57  -1  72  -1
M  END
$$$$
