5_4_5624
 OpenBabel04152301373D

146157  0  0  1  0  0  0  0  0999 V2000
    0.3036   -5.9016    1.4877 C   0  0  0  0  0  0  0  0  0  0  0  0
    0.0609   -7.1354    2.2609 C   0  0  0  0  0  0  0  0  0  0  0  0
   -1.1082   -7.0850    2.9678 O   0  0  0  0  0  0  0  0  0  0  0  0
   -1.2973   -8.2886    3.5475 C   0  0  0  0  0  0  0  0  0  0  0  0
   -0.2560   -9.1203    3.2374 C   0  0  0  0  0  0  0  0  0  0  0  0
    0.6735   -8.3705    2.4345 C   0  0  0  0  0  0  0  0  0  0  0  0
    1.9034   -8.9653    1.9212 C   0  0  0  0  0  0  0  0  0  0  0  0
    1.9453  -10.1768    1.6874 O   0  0  0  0  0  0  0  0  0  0  0  0
    3.0838   -8.2737    1.7790 N   0  0  0  0  0  0  0  0  0  0  0  0
    3.2656   -6.8959    1.7677 N   0  0  0  0  0  0  0  0  0  0  0  0
    3.5888   -6.3264    0.5478 C   0  0  0  0  0  0  0  0  0  0  0  0
    3.8285   -6.9698   -0.4641 O   0  0  0  0  0  0  0  0  0  0  0  0
    3.6791   -4.8441    0.7036 C   0  0  0  0  0  0  0  0  0  0  0  0
    3.7118   -3.9130   -0.2643 C   0  0  0  0  0  0  0  0  0  0  0  0
    3.7612   -4.1887   -1.7068 C   0  0  0  0  0  0  0  0  0  0  0  0
    4.7691   -3.5926   -2.4710 C   0  0  0  0  0  0  0  0  0  0  0  0
    4.9930   -3.9911   -3.7955 C   0  0  0  0  0  0  0  0  0  0  0  0
    4.2417   -5.0189   -4.3484 C   0  0  0  0  0  0  0  0  0  0  0  0
    4.4453   -5.6742   -5.5164 O   0  0  0  0  0  0  0  0  0  0  0  0
    5.5600   -5.4928   -6.3780 C   0  0  2  0  0  0  0  0  0  0  0  0
    6.9514   -5.3641   -5.7578 C   0  0  0  0  0  0  0  0  0  0  0  0
    5.2446   -4.4871   -7.4785 C   0  0  0  0  0  0  0  0  0  0  0  0
    5.0412   -4.8186   -8.6418 O   0  0  0  0  0  0  0  0  0  0  0  0
    5.2311   -3.2069   -7.0161 O   0  0  0  0  0  0  0  0  0  0  0  0
    4.9080   -2.2013   -7.9915 C   0  0  0  0  0  0  0  0  0  0  0  0
    6.1127   -1.3245   -8.3409 C   0  0  0  0  0  0  0  0  0  0  0  0
    7.2070   -1.9683   -8.9925 O   0  0  0  0  0  0  0  0  0  0  0  0
    8.0822   -2.7517   -8.1853 C   0  0  0  0  0  0  0  0  0  0  0  0
    9.0935   -1.9988   -7.3114 C   0  0  0  0  0  0  0  0  0  0  0  0
    8.4633   -1.1925   -6.2995 O   0  0  0  0  0  0  0  0  0  0  0  0
    8.5643    0.1436   -6.5087 C   0  0  0  0  0  0  0  0  0  0  0  0
    9.1807    0.6978   -7.4105 O   0  0  0  0  0  0  0  0  0  0  0  0
    7.6686    0.8816   -5.5986 C   0  0  0  0  0  0  0  0  0  0  0  0
    6.7845    1.8027   -6.1750 C   0  0  0  0  0  0  0  0  0  0  0  0
    6.0118    2.6323   -5.3653 C   0  0  0  0  0  0  0  0  0  0  0  0
    6.1305    2.5599   -3.9714 C   0  0  0  0  0  0  0  0  0  0  0  0
    5.4923    3.6065   -3.1318 C   0  0  0  0  0  0  0  0  0  0  0  0
    6.3361    4.7463   -2.6240 C   0  0  0  0  0  0  0  0  0  0  0  0
    6.0014    5.7497   -1.8548 N   0  0  0  0  0  0  0  0  0  0  0  0
    7.1560    6.5104   -1.6989 C   0  0  0  0  0  0  0  0  0  0  0  0
    7.3203    7.6766   -1.0268 C   0  0  0  0  0  0  0  0  0  0  0  0
    8.7036    8.2786   -1.0061 C   0  0  0  0  0  0  0  0  0  0  0  0
    9.3147    8.7684   -2.1734 C   0  0  0  0  0  0  0  0  0  0  0  0
   10.6268    9.2633   -2.1208 C   0  0  0  0  0  0  0  0  0  0  0  0
   11.4672    9.6643   -3.6771 S   0  0  0  0  0  0  0  0  0  0  0  0
   11.4548    8.3726   -4.3593 O   0  0  0  0  0  0  0  0  0  0  0  0
   10.6064   10.6954   -4.2447 O   0  0  0  0  0  0  0  0  0  0  0  0
   12.7871   10.1208   -3.2461 O   0  5  0  0  0  0  0  0  0  0  0  0
   11.3149    9.3646   -0.9093 C   0  0  0  0  0  0  0  0  0  0  0  0
   10.7018    8.9175    0.2573 C   0  0  0  0  0  0  0  0  0  0  0  0
    9.4246    8.3572    0.1987 C   0  0  0  0  0  0  0  0  0  0  0  0
    8.9004    7.8835    1.3402 F   0  0  0  0  0  0  0  0  0  0  0  0
    6.2655    8.3438   -0.3039 C   0  0  0  0  0  0  0  0  0  0  0  0
    6.3266    9.5249    0.4159 C   0  0  0  0  0  0  0  0  0  0  0  0
    5.0775    9.7456    1.0058 C   0  0  0  0  0  0  0  0  0  0  0  0
    4.2137    8.7449    0.5917 C   0  0  0  0  0  0  0  0  0  0  0  0
    4.9583    7.8865   -0.2025 N   0  0  0  0  0  0  0  0  0  0  0  0
    2.8109    8.5876    0.8927 C   0  0  0  0  0  0  0  0  0  0  0  0
    2.1382    9.6464    1.7330 C   0  0  0  0  0  0  0  0  0  0  0  0
    1.6258    9.3641    3.0111 C   0  0  0  0  0  0  0  0  0  0  0  0
    0.9490   10.3622    3.7290 C   0  0  0  0  0  0  0  0  0  0  0  0
    0.1369    9.9149    5.2881 S   0  0  0  0  0  0  0  0  0  0  0  0
   -0.7859    8.8685    4.8605 O   0  0  0  0  0  0  0  0  0  0  0  0
    1.2601    9.4767    6.1103 O   0  0  0  0  0  0  0  0  0  0  0  0
   -0.4942   11.1619    5.7166 O   0  5  0  0  0  0  0  0  0  0  0  0
    0.8371   11.6627    3.2304 C   0  0  0  0  0  0  0  0  0  0  0  0
    1.3793   11.9609    1.9837 C   0  0  0  0  0  0  0  0  0  0  0  0
    2.0001   10.9565    1.2398 C   0  0  0  0  0  0  0  0  0  0  0  0
    2.4708   11.2826    0.0253 F   0  0  0  0  0  0  0  0  0  0  0  0
    2.0328    7.5744    0.4330 C   0  0  0  0  0  0  0  0  0  0  0  0
    2.3723    6.5040   -0.3924 N   0  0  0  0  0  0  0  0  0  0  0  0
    1.2721    5.8005   -0.5364 C   0  0  0  0  0  0  0  0  0  0  0  0
    1.0386    4.5550   -1.3614 C   0  0  0  0  0  0  0  0  0  0  0  0
   -0.3008    3.8959   -1.3645 C   0  0  0  0  0  0  0  0  0  0  0  0
   -1.4401    4.5670   -1.8363 C   0  0  0  0  0  0  0  0  0  0  0  0
   -2.7083    3.9831   -1.6878 C   0  0  0  0  0  0  0  0  0  0  0  0
   -4.1720    4.9713   -2.1039 S   0  0  0  0  0  0  0  0  0  0  0  0
   -3.9821    6.1490   -1.2650 O   0  0  0  0  0  0  0  0  0  0  0  0
   -4.0021    5.1703   -3.5392 O   0  0  0  0  0  0  0  0  0  0  0  0
   -5.2855    4.1050   -1.7230 O   0  5  0  0  0  0  0  0  0  0  0  0
   -2.8601    2.7051   -1.1460 C   0  0  0  0  0  0  0  0  0  0  0  0
   -1.7312    2.0120   -0.7219 C   0  0  0  0  0  0  0  0  0  0  0  0
   -0.4752    2.6145   -0.8105 C   0  0  0  0  0  0  0  0  0  0  0  0
    0.5785    1.9275   -0.3400 F   0  0  0  0  0  0  0  0  0  0  0  0
    2.0689    4.0277   -2.0547 C   0  0  0  0  0  0  0  0  0  0  0  0
    2.0097    2.8362   -2.8995 C   0  0  0  0  0  0  0  0  0  0  0  0
    3.2419    2.5556   -3.3584 C   0  0  0  0  0  0  0  0  0  0  0  0
    4.1724    3.5733   -2.8711 C   0  0  0  0  0  0  0  0  0  0  0  0
    3.3849    4.4212   -2.1324 N   0  0  0  0  0  0  0  0  0  0  0  0
    0.1225    6.3266    0.2126 C   0  0  0  0  0  0  0  0  0  0  0  0
    0.6260    7.4313    0.7417 C   0  0  0  0  0  0  0  0  0  0  0  0
    8.2089    5.8274   -2.4206 C   0  0  0  0  0  0  0  0  0  0  0  0
    7.7467    4.7529   -3.0425 C   0  0  0  0  0  0  0  0  0  0  0  0
    6.9734    1.5891   -3.3981 C   0  0  0  0  0  0  0  0  0  0  0  0
    7.7452    0.7476   -4.2103 C   0  0  0  0  0  0  0  0  0  0  0  0
    3.1439   -5.5035   -3.6354 C   0  0  0  0  0  0  0  0  0  0  0  0
    2.8807   -5.0681   -2.3370 C   0  0  0  0  0  0  0  0  0  0  0  0
    3.7275   -4.4593    2.3969 S   0  0  0  0  0  0  0  0  0  0  0  0
    3.4498   -6.1307    2.8981 C   0  0  0  0  0  0  0  0  0  0  0  0
    3.4531   -6.6329    4.4869 S   0  0  0  0  0  0  0  0  0  0  0  0
   -0.4748   -5.1956    1.6890 H   0  0  0  0  0  0  0  0  0  0  0  0
    0.3148   -6.1319    0.4428 H   0  0  0  0  0  0  0  0  0  0  0  0
    1.2467   -5.4830    1.7708 H   0  0  0  0  0  0  0  0  0  0  0  0
   -2.1057   -8.5435    4.1362 H   0  0  0  0  0  0  0  0  0  0  0  0
   -0.1555  -10.1058    3.5266 H   0  0  0  0  0  0  0  0  0  0  0  0
    3.8963   -8.8194    1.6726 H   0  0  0  0  0  0  0  0  0  0  0  0
    3.7014   -2.9237    0.0291 H   0  0  0  0  0  0  0  0  0  0  0  0
    5.3543   -2.8513   -2.0551 H   0  0  0  0  0  0  0  0  0  0  0  0
    5.7170   -3.5201   -4.3603 H   0  0  0  0  0  0  0  0  0  0  0  0
    5.6872   -6.4541   -6.8303 H   0  0  0  0  0  0  0  0  0  0  0  0
    7.0261   -4.4308   -5.2399 H   0  0  0  0  0  0  0  0  0  0  0  0
    7.6911   -5.4038   -6.5299 H   0  0  0  0  0  0  0  0  0  0  0  0
    7.1108   -6.1677   -5.0695 H   0  0  0  0  0  0  0  0  0  0  0  0
    4.1310   -1.5786   -7.5997 H   0  0  0  0  0  0  0  0  0  0  0  0
    4.5952   -2.6998   -8.8851 H   0  0  0  0  0  0  0  0  0  0  0  0
    6.4812   -0.9019   -7.4296 H   0  0  0  0  0  0  0  0  0  0  0  0
    5.7450   -0.6107   -9.0482 H   0  0  0  0  0  0  0  0  0  0  0  0
    8.6362   -3.3920   -8.8395 H   0  0  0  0  0  0  0  0  0  0  0  0
    7.4408   -3.2553   -7.4925 H   0  0  0  0  0  0  0  0  0  0  0  0
    9.6810   -1.3621   -7.9394 H   0  0  0  0  0  0  0  0  0  0  0  0
    9.6959   -2.7292   -6.8130 H   0  0  0  0  0  0  0  0  0  0  0  0
    6.7054    1.8669   -7.2020 H   0  0  0  0  0  0  0  0  0  0  0  0
    5.3516    3.3005   -5.7926 H   0  0  0  0  0  0  0  0  0  0  0  0
    8.7993    8.7641   -3.0675 H   0  0  0  0  0  0  0  0  0  0  0  0
   12.2653    9.7657   -0.8798 H   0  0  0  0  0  0  0  0  0  0  0  0
   11.1898    8.9999    1.1629 H   0  0  0  0  0  0  0  0  0  0  0  0
    7.1524   10.1377    0.5025 H   0  0  0  0  0  0  0  0  0  0  0  0
    4.8397   10.5226    1.6420 H   0  0  0  0  0  0  0  0  0  0  0  0
    4.6109    7.0716   -0.6320 H   0  0  0  0  0  0  0  0  0  0  0  0
    1.7470    8.4247    3.4208 H   0  0  0  0  0  0  0  0  0  0  0  0
    0.3582   12.3933    3.7799 H   0  0  0  0  0  0  0  0  0  0  0  0
    1.3225   12.9214    1.6107 H   0  0  0  0  0  0  0  0  0  0  0  0
   -1.3456    5.4883   -2.2917 H   0  0  0  0  0  0  0  0  0  0  0  0
   -3.7970    2.2807   -1.0614 H   0  0  0  0  0  0  0  0  0  0  0  0
   -1.8218    1.0562   -0.3433 H   0  0  0  0  0  0  0  0  0  0  0  0
    1.1564    2.2955   -3.1105 H   0  0  0  0  0  0  0  0  0  0  0  0
    3.4907    1.7527   -3.9571 H   0  0  0  0  0  0  0  0  0  0  0  0
    3.7298    5.2350   -1.6987 H   0  0  0  0  0  0  0  0  0  0  0  0
   -0.8288    5.9369    0.3028 H   0  0  0  0  0  0  0  0  0  0  0  0
    0.0833    8.1056    1.3037 H   0  0  0  0  0  0  0  0  0  0  0  0
    9.1928    6.1376   -2.4472 H   0  0  0  0  0  0  0  0  0  0  0  0
    8.2456    4.0929   -3.6593 H   0  0  0  0  0  0  0  0  0  0  0  0
    7.0233    1.4964   -2.3715 H   0  0  0  0  0  0  0  0  0  0  0  0
    8.3630    0.0371   -3.7877 H   0  0  0  0  0  0  0  0  0  0  0  0
    2.5172   -6.1949   -4.0761 H   0  0  0  0  0  0  0  0  0  0  0  0
    2.0359   -5.3960   -1.8432 H   0  0  0  0  0  0  0  0  0  0  0  0
  1  2  1  0  0  0  0
  1101  1  0  0  0  0
  1102  1  0  0  0  0
  1103  1  0  0  0  0
  2  3  1  0  0  0  0
  2  6  2  0  0  0  0
  3  4  1  0  0  0  0
  4  5  2  0  0  0  0
  4104  1  0  0  0  0
  5  6  1  0  0  0  0
  5105  1  0  0  0  0
  6  7  1  0  0  0  0
  7  8  2  0  0  0  0
  7  9  1  0  0  0  0
  9 10  1  0  0  0  0
  9106  1  0  0  0  0
 10 11  1  0  0  0  0
 10 99  1  0  0  0  0
 11 12  2  0  0  0  0
 11 13  1  0  0  0  0
 13 14  2  0  0  0  0
 13 98  1  0  0  0  0
 14 15  1  0  0  0  0
 14107  1  0  0  0  0
 15 16  1  0  0  0  0
 15 97  2  0  0  0  0
 16 17  2  0  0  0  0
 16108  1  0  0  0  0
 17 18  1  0  0  0  0
 17109  1  0  0  0  0
 18 19  1  0  0  0  0
 18 96  2  0  0  0  0
 20 22  1  0  0  0  0
 20 21  1  0  0  0  0
 20 19  1  0  0  0  0
 20110  1  6  0  0  0
 21111  1  0  0  0  0
 21112  1  0  0  0  0
 21113  1  0  0  0  0
 22 23  2  0  0  0  0
 22 24  1  0  0  0  0
 24 25  1  0  0  0  0
 25 26  1  0  0  0  0
 25114  1  0  0  0  0
 25115  1  0  0  0  0
 26 27  1  0  0  0  0
 26116  1  0  0  0  0
 26117  1  0  0  0  0
 27 28  1  0  0  0  0
 28 29  1  0  0  0  0
 28118  1  0  0  0  0
 28119  1  0  0  0  0
 29 30  1  0  0  0  0
 29120  1  0  0  0  0
 29121  1  0  0  0  0
 30 31  1  0  0  0  0
 31 32  2  0  0  0  0
 31 33  1  0  0  0  0
 33 34  1  0  0  0  0
 33 95  2  0  0  0  0
 34 35  2  0  0  0  0
 34122  1  0  0  0  0
 35 36  1  0  0  0  0
 35123  1  0  0  0  0
 36 37  1  0  0  0  0
 36 94  2  0  0  0  0
 37 38  1  0  0  0  0
 37 88  2  0  0  0  0
 38 39  2  0  0  0  0
 38 93  1  0  0  0  0
 39 40  1  0  0  0  0
 40 41  2  0  0  0  0
 40 92  1  0  0  0  0
 41 42  1  0  0  0  0
 41 53  1  0  0  0  0
 42 43  1  0  0  0  0
 42 51  2  0  0  0  0
 43 44  2  0  0  0  0
 43124  1  0  0  0  0
 44 45  1  0  0  0  0
 44 49  1  0  0  0  0
 45 46  2  0  0  0  0
 45 47  2  0  0  0  0
 45 48  1  0  0  0  0
 49 50  2  0  0  0  0
 49125  1  0  0  0  0
 50 51  1  0  0  0  0
 50126  1  0  0  0  0
 51 52  1  0  0  0  0
 53 54  2  0  0  0  0
 53 57  1  0  0  0  0
 54 55  1  0  0  0  0
 54127  1  0  0  0  0
 55 56  2  0  0  0  0
 55128  1  0  0  0  0
 56 57  1  0  0  0  0
 56 58  1  0  0  0  0
 57129  1  0  0  0  0
 58 59  1  0  0  0  0
 58 70  2  0  0  0  0
 59 60  1  0  0  0  0
 59 68  2  0  0  0  0
 60 61  2  0  0  0  0
 60130  1  0  0  0  0
 61 62  1  0  0  0  0
 61 66  1  0  0  0  0
 62 63  2  0  0  0  0
 62 64  2  0  0  0  0
 62 65  1  0  0  0  0
 66 67  2  0  0  0  0
 66131  1  0  0  0  0
 67 68  1  0  0  0  0
 67132  1  0  0  0  0
 68 69  1  0  0  0  0
 70 71  1  0  0  0  0
 70 91  1  0  0  0  0
 71 72  2  0  0  0  0
 72 73  1  0  0  0  0
 72 90  1  0  0  0  0
 73 74  1  0  0  0  0
 73 85  2  0  0  0  0
 74 75  1  0  0  0  0
 74 83  2  0  0  0  0
 75 76  2  0  0  0  0
 75133  1  0  0  0  0
 76 77  1  0  0  0  0
 76 81  1  0  0  0  0
 77 78  2  0  0  0  0
 77 79  2  0  0  0  0
 77 80  1  0  0  0  0
 81 82  2  0  0  0  0
 81134  1  0  0  0  0
 82 83  1  0  0  0  0
 82135  1  0  0  0  0
 83 84  1  0  0  0  0
 85 86  1  0  0  0  0
 85 89  1  0  0  0  0
 86 87  2  0  0  0  0
 86136  1  0  0  0  0
 87 88  1  0  0  0  0
 87137  1  0  0  0  0
 88 89  1  0  0  0  0
 89138  1  0  0  0  0
 90 91  2  0  0  0  0
 90139  1  0  0  0  0
 91140  1  0  0  0  0
 92 93  2  0  0  0  0
 92141  1  0  0  0  0
 93142  1  0  0  0  0
 94 95  1  0  0  0  0
 94143  1  0  0  0  0
 95144  1  0  0  0  0
 96 97  1  0  0  0  0
 96145  1  0  0  0  0
 97146  1  0  0  0  0
 98 99  1  0  0  0  0
 99100  2  0  0  0  0
M  CHG  3  48  -1  65  -1  80  -1
M  END
$$$$
