5_4_6271
 OpenBabel04152301373D

150161  0  0  1  0  0  0  0  0999 V2000
   -0.1548    1.2255    1.1665 C   0  0  0  0  0  0  0  0  0  0  0  0
   -0.1483    0.6672    2.4665 O   0  0  0  0  0  0  0  0  0  0  0  0
    0.8242   -0.3731    2.6192 C   0  0  0  0  0  0  0  0  0  0  0  0
    0.3948   -1.6860    1.9560 C   0  0  0  0  0  0  0  0  0  0  0  0
    1.2025   -2.1993    0.8467 N   0  0  0  0  0  0  0  0  0  0  0  0
    1.3814   -3.5781    0.7064 C   0  0  0  0  0  0  0  0  0  0  0  0
    1.0573   -4.4417    1.5056 O   0  0  0  0  0  0  0  0  0  0  0  0
    2.0256   -3.8452   -0.6180 C   0  0  0  0  0  0  0  0  0  0  0  0
    1.6076   -2.6122   -1.3985 C   0  0  2  0  0  0  0  0  0  0  0  0
    2.4166   -2.2992   -2.6018 C   0  0  0  0  0  0  0  0  0  0  0  0
    1.9512   -1.6292   -3.5106 O   0  0  0  0  0  0  0  0  0  0  0  0
    3.6518   -2.8389   -2.5807 O   0  0  0  0  0  0  0  0  0  0  0  0
    4.6019   -2.2005   -3.4264 C   0  0  0  0  0  0  0  0  0  0  0  0
    4.4946   -2.3484   -4.9559 C   0  0  0  0  0  0  0  0  0  0  0  0
    3.3416   -2.8053   -5.6346 O   0  0  0  0  0  0  0  0  0  0  0  0
    2.6120   -3.9541   -5.2444 C   0  0  0  0  0  0  0  0  0  0  0  0
    3.2759   -5.2757   -4.8461 C   0  0  0  0  0  0  0  0  0  0  0  0
    4.4726   -5.1621   -4.0780 O   0  0  0  0  0  0  0  0  0  0  0  0
    5.6045   -5.3182   -4.8044 C   0  0  0  0  0  0  0  0  0  0  0  0
    5.6801   -5.5288   -6.0059 O   0  0  0  0  0  0  0  0  0  0  0  0
    6.7695   -4.9890   -3.9679 C   0  0  0  0  0  0  0  0  0  0  0  0
    7.6948   -4.0681   -4.4777 C   0  0  0  0  0  0  0  0  0  0  0  0
    8.8521   -3.7806   -3.7667 C   0  0  0  0  0  0  0  0  0  0  0  0
    9.1094   -4.4562   -2.5687 C   0  0  0  0  0  0  0  0  0  0  0  0
   10.4881   -4.4433   -2.0337 C   0  0  0  0  0  0  0  0  0  0  0  0
   11.3946   -5.5805   -2.4176 C   0  0  0  0  0  0  0  0  0  0  0  0
   12.6174   -5.8343   -2.0367 N   0  0  0  0  0  0  0  0  0  0  0  0
   12.9819   -7.0013   -2.6999 C   0  0  0  0  0  0  0  0  0  0  0  0
   14.1731   -7.6456   -2.6801 C   0  0  0  0  0  0  0  0  0  0  0  0
   14.2954   -8.9035   -3.5031 C   0  0  0  0  0  0  0  0  0  0  0  0
   14.1951   -8.8786   -4.9055 C   0  0  0  0  0  0  0  0  0  0  0  0
   14.2261  -10.0786   -5.6312 C   0  0  0  0  0  0  0  0  0  0  0  0
   13.8274  -10.0327   -7.3998 S   0  0  0  0  0  0  0  0  0  0  0  0
   12.4713   -9.4894   -7.3815 O   0  0  0  0  0  0  0  0  0  0  0  0
   14.8606   -9.1535   -7.9341 O   0  0  0  0  0  0  0  0  0  0  0  0
   13.9250  -11.4322   -7.8095 O   0  5  0  0  0  0  0  0  0  0  0  0
   14.4558  -11.3017   -4.9972 C   0  0  0  0  0  0  0  0  0  0  0  0
   14.5992  -11.3303   -3.6131 C   0  0  0  0  0  0  0  0  0  0  0  0
   14.4882  -10.1482   -2.8790 C   0  0  0  0  0  0  0  0  0  0  0  0
   14.5603  -10.2381   -1.5415 F   0  0  0  0  0  0  0  0  0  0  0  0
   15.2939   -7.2115   -1.8863 C   0  0  0  0  0  0  0  0  0  0  0  0
   16.5383   -7.8002   -1.7551 C   0  0  0  0  0  0  0  0  0  0  0  0
   17.2715   -7.0653   -0.8183 C   0  0  0  0  0  0  0  0  0  0  0  0
   16.5197   -5.9667   -0.4316 C   0  0  0  0  0  0  0  0  0  0  0  0
   15.3015   -6.0795   -1.0805 N   0  0  0  0  0  0  0  0  0  0  0  0
   16.8935   -4.8913    0.4565 C   0  0  0  0  0  0  0  0  0  0  0  0
   18.2956   -4.8964    1.0173 C   0  0  0  0  0  0  0  0  0  0  0  0
   18.5450   -5.0261    2.3940 C   0  0  0  0  0  0  0  0  0  0  0  0
   19.8615   -4.9608    2.8737 C   0  0  0  0  0  0  0  0  0  0  0  0
   20.1314   -4.9072    4.6661 S   0  0  0  0  0  0  0  0  0  0  0  0
   19.3636   -3.7281    5.0525 O   0  0  0  0  0  0  0  0  0  0  0  0
   19.5908   -6.1907    5.1017 O   0  0  0  0  0  0  0  0  0  0  0  0
   21.5816   -4.7717    4.7904 O   0  5  0  0  0  0  0  0  0  0  0  0
   20.9466   -4.8570    1.9996 C   0  0  0  0  0  0  0  0  0  0  0  0
   20.7103   -4.7750    0.6308 C   0  0  0  0  0  0  0  0  0  0  0  0
   19.3994   -4.7671    0.1544 C   0  0  0  0  0  0  0  0  0  0  0  0
   19.2206   -4.6380   -1.1702 F   0  0  0  0  0  0  0  0  0  0  0  0
   16.0955   -3.8438    0.7901 C   0  0  0  0  0  0  0  0  0  0  0  0
   14.7945   -3.5543    0.3823 N   0  0  0  0  0  0  0  0  0  0  0  0
   14.4649   -2.4396    0.9971 C   0  0  0  0  0  0  0  0  0  0  0  0
   13.1859   -1.6372    0.8952 C   0  0  0  0  0  0  0  0  0  0  0  0
   12.9838   -0.4164    1.7304 C   0  0  0  0  0  0  0  0  0  0  0  0
   13.8361    0.6932    1.6208 C   0  0  0  0  0  0  0  0  0  0  0  0
   13.7167    1.7605    2.5255 C   0  0  0  0  0  0  0  0  0  0  0  0
   14.9872    3.0556    2.5094 S   0  0  0  0  0  0  0  0  0  0  0  0
   16.2061    2.2752    2.6871 O   0  0  0  0  0  0  0  0  0  0  0  0
   14.7919    3.6518    1.1922 O   0  0  0  0  0  0  0  0  0  0  0  0
   14.6184    3.9065    3.6387 O   0  5  0  0  0  0  0  0  0  0  0  0
   12.7065    1.7869    3.4890 C   0  0  0  0  0  0  0  0  0  0  0  0
   11.8225    0.7168    3.5699 C   0  0  0  0  0  0  0  0  0  0  0  0
   11.9816   -0.3775    2.7181 C   0  0  0  0  0  0  0  0  0  0  0  0
   11.1386   -1.4111    2.8736 F   0  0  0  0  0  0  0  0  0  0  0  0
   12.2102   -2.0825    0.0777 C   0  0  0  0  0  0  0  0  0  0  0  0
   10.9146   -1.4431   -0.1452 C   0  0  0  0  0  0  0  0  0  0  0  0
   10.1569   -2.2377   -0.9215 C   0  0  0  0  0  0  0  0  0  0  0  0
   10.9347   -3.4214   -1.2848 C   0  0  0  0  0  0  0  0  0  0  0  0
   12.1538   -3.2208   -0.6913 N   0  0  0  0  0  0  0  0  0  0  0  0
   15.5063   -1.9196    1.8919 C   0  0  0  0  0  0  0  0  0  0  0  0
   16.4932   -2.7783    1.6861 C   0  0  0  0  0  0  0  0  0  0  0  0
   11.8346   -7.4313   -3.4675 C   0  0  0  0  0  0  0  0  0  0  0  0
   10.8398   -6.5654   -3.3624 C   0  0  0  0  0  0  0  0  0  0  0  0
    8.1488   -5.3291   -2.0263 C   0  0  0  0  0  0  0  0  0  0  0  0
    6.9697   -5.5931   -2.7247 C   0  0  0  0  0  0  0  0  0  0  0  0
    1.5688   -1.4634   -0.3852 C   0  0  2  0  0  0  0  0  0  0  0  0
    2.8447   -0.6096   -0.2843 C   0  0  0  0  0  0  0  0  0  0  0  0
    3.7766   -0.9513    0.7310 C   0  0  0  0  0  0  0  0  0  0  0  0
    4.9877   -0.2830    0.8864 C   0  0  0  0  0  0  0  0  0  0  0  0
    5.3155    0.7401    0.0176 C   0  0  0  0  0  0  0  0  0  0  0  0
    4.4336    1.0865   -1.0075 C   0  0  0  0  0  0  0  0  0  0  0  0
    3.1927    0.4368   -1.2062 C   0  0  0  0  0  0  0  0  0  0  0  0
    2.4386    0.7816   -2.3306 N   0  0  0  0  0  0  0  0  0  0  0  0
    1.1110    1.3933   -2.2087 C   0  0  0  0  0  0  0  0  0  0  0  0
    0.2749    1.0705   -3.4584 C   0  0  0  0  0  0  0  0  0  0  0  0
    0.8899    1.6058   -4.6399 O   0  0  0  0  0  0  0  0  0  0  0  0
    2.1912    1.0226   -4.8258 C   0  0  0  0  0  0  0  0  0  0  0  0
    3.1042    1.2223   -3.5935 C   0  0  0  0  0  0  0  0  0  0  0  0
   -0.8976    1.9937    1.1120 H   0  0  0  0  0  0  0  0  0  0  0  0
   -0.3785    0.4616    0.4514 H   0  0  0  0  0  0  0  0  0  0  0  0
    0.8068    1.6434    0.9530 H   0  0  0  0  0  0  0  0  0  0  0  0
    0.9747   -0.5504    3.6636 H   0  0  0  0  0  0  0  0  0  0  0  0
    1.7236   -0.0477    2.1394 H   0  0  0  0  0  0  0  0  0  0  0  0
   -0.5988   -1.5438    1.5854 H   0  0  0  0  0  0  0  0  0  0  0  0
    0.5063   -2.4203    2.7263 H   0  0  0  0  0  0  0  0  0  0  0  0
    1.6470   -4.7404   -1.0655 H   0  0  0  0  0  0  0  0  0  0  0  0
    3.0834   -3.9991   -0.5705 H   0  0  0  0  0  0  0  0  0  0  0  0
    0.6485   -2.7912   -1.8377 H   0  0  0  0  0  0  0  0  0  0  0  0
    5.5646   -2.5746   -3.1468 H   0  0  0  0  0  0  0  0  0  0  0  0
    4.4128   -1.1596   -3.2664 H   0  0  0  0  0  0  0  0  0  0  0  0
    5.2792   -3.0197   -5.2363 H   0  0  0  0  0  0  0  0  0  0  0  0
    4.5098   -1.3218   -5.2572 H   0  0  0  0  0  0  0  0  0  0  0  0
    1.9672   -4.1855   -6.0663 H   0  0  0  0  0  0  0  0  0  0  0  0
    2.1993   -3.6350   -4.3102 H   0  0  0  0  0  0  0  0  0  0  0  0
    3.5111   -5.8086   -5.7436 H   0  0  0  0  0  0  0  0  0  0  0  0
    2.5717   -5.7763   -4.2149 H   0  0  0  0  0  0  0  0  0  0  0  0
    7.5159   -3.6036   -5.3817 H   0  0  0  0  0  0  0  0  0  0  0  0
    9.5171   -3.0744   -4.1189 H   0  0  0  0  0  0  0  0  0  0  0  0
   14.0988   -7.9782   -5.4004 H   0  0  0  0  0  0  0  0  0  0  0  0
   14.5183  -12.1724   -5.5476 H   0  0  0  0  0  0  0  0  0  0  0  0
   14.7871  -12.2231   -3.1308 H   0  0  0  0  0  0  0  0  0  0  0  0
   16.8686   -8.6369   -2.2609 H   0  0  0  0  0  0  0  0  0  0  0  0
   18.2148   -7.3014   -0.4725 H   0  0  0  0  0  0  0  0  0  0  0  0
   14.5508   -5.4498   -0.9849 H   0  0  0  0  0  0  0  0  0  0  0  0
   17.7617   -5.1690    3.0505 H   0  0  0  0  0  0  0  0  0  0  0  0
   21.9117   -4.8413    2.3648 H   0  0  0  0  0  0  0  0  0  0  0  0
   21.5017   -4.7203   -0.0292 H   0  0  0  0  0  0  0  0  0  0  0  0
   14.5498    0.7247    0.8761 H   0  0  0  0  0  0  0  0  0  0  0  0
   12.6173    2.5892    4.1319 H   0  0  0  0  0  0  0  0  0  0  0  0
   11.0522    0.7315    4.2566 H   0  0  0  0  0  0  0  0  0  0  0  0
   10.6271   -0.5271    0.2333 H   0  0  0  0  0  0  0  0  0  0  0  0
    9.1861   -2.0440   -1.2130 H   0  0  0  0  0  0  0  0  0  0  0  0
   12.9162   -3.8333   -0.8048 H   0  0  0  0  0  0  0  0  0  0  0  0
   15.4769   -1.0994    2.5176 H   0  0  0  0  0  0  0  0  0  0  0  0
   17.4299   -2.6980    2.1117 H   0  0  0  0  0  0  0  0  0  0  0  0
   11.7966   -8.2995   -4.0242 H   0  0  0  0  0  0  0  0  0  0  0  0
    9.9160   -6.5769   -3.8223 H   0  0  0  0  0  0  0  0  0  0  0  0
    8.3162   -5.7749   -1.1107 H   0  0  0  0  0  0  0  0  0  0  0  0
    6.2565   -6.2251   -2.3285 H   0  0  0  0  0  0  0  0  0  0  0  0
    0.8850   -0.6846   -0.6511 H   0  0  0  0  0  0  0  0  0  0  0  0
    3.5478   -1.7229    1.3770 H   0  0  0  0  0  0  0  0  0  0  0  0
    5.6354   -0.5495    1.6443 H   0  0  0  0  0  0  0  0  0  0  0  0
    6.2084    1.2460    0.1261 H   0  0  0  0  0  0  0  0  0  0  0  0
    4.6986    1.8504   -1.6488 H   0  0  0  0  0  0  0  0  0  0  0  0
    1.2154    2.4541   -2.1148 H   0  0  0  0  0  0  0  0  0  0  0  0
    0.6190    1.0026   -1.3425 H   0  0  0  0  0  0  0  0  0  0  0  0
   -0.7000    1.4972   -3.3472 H   0  0  0  0  0  0  0  0  0  0  0  0
    0.2089    0.0074   -3.5597 H   0  0  0  0  0  0  0  0  0  0  0  0
    2.6548    1.4789   -5.6753 H   0  0  0  0  0  0  0  0  0  0  0  0
    2.0612   -0.0296   -4.9704 H   0  0  0  0  0  0  0  0  0  0  0  0
    3.9994    0.6523   -3.7300 H   0  0  0  0  0  0  0  0  0  0  0  0
    3.3216    2.2664   -3.5072 H   0  0  0  0  0  0  0  0  0  0  0  0
  1  2  1  0  0  0  0
  1 97  1  0  0  0  0
  1 98  1  0  0  0  0
  1 99  1  0  0  0  0
  2  3  1  0  0  0  0
  3  4  1  0  0  0  0
  3100  1  0  0  0  0
  3101  1  0  0  0  0
  4  5  1  0  0  0  0
  4102  1  0  0  0  0
  4103  1  0  0  0  0
  5  6  1  0  0  0  0
  5 84  1  0  0  0  0
  6  7  2  0  0  0  0
  6  8  1  0  0  0  0
  8  9  1  0  0  0  0
  8104  1  0  0  0  0
  8105  1  0  0  0  0
  9 10  1  0  0  0  0
  9 84  1  0  0  0  0
  9106  1  6  0  0  0
 10 11  2  0  0  0  0
 10 12  1  0  0  0  0
 12 13  1  0  0  0  0
 13 14  1  0  0  0  0
 13107  1  0  0  0  0
 13108  1  0  0  0  0
 14 15  1  0  0  0  0
 14109  1  0  0  0  0
 14110  1  0  0  0  0
 15 16  1  0  0  0  0
 16 17  1  0  0  0  0
 16111  1  0  0  0  0
 16112  1  0  0  0  0
 17 18  1  0  0  0  0
 17113  1  0  0  0  0
 17114  1  0  0  0  0
 18 19  1  0  0  0  0
 19 20  2  0  0  0  0
 19 21  1  0  0  0  0
 21 22  1  0  0  0  0
 21 83  2  0  0  0  0
 22 23  2  0  0  0  0
 22115  1  0  0  0  0
 23 24  1  0  0  0  0
 23116  1  0  0  0  0
 24 25  1  0  0  0  0
 24 82  2  0  0  0  0
 25 26  1  0  0  0  0
 25 76  2  0  0  0  0
 26 27  2  0  0  0  0
 26 81  1  0  0  0  0
 27 28  1  0  0  0  0
 28 29  2  0  0  0  0
 28 80  1  0  0  0  0
 29 30  1  0  0  0  0
 29 41  1  0  0  0  0
 30 31  1  0  0  0  0
 30 39  2  0  0  0  0
 31 32  2  0  0  0  0
 31117  1  0  0  0  0
 32 33  1  0  0  0  0
 32 37  1  0  0  0  0
 33 34  2  0  0  0  0
 33 35  2  0  0  0  0
 33 36  1  0  0  0  0
 37 38  2  0  0  0  0
 37118  1  0  0  0  0
 38 39  1  0  0  0  0
 38119  1  0  0  0  0
 39 40  1  0  0  0  0
 41 42  2  0  0  0  0
 41 45  1  0  0  0  0
 42 43  1  0  0  0  0
 42120  1  0  0  0  0
 43 44  2  0  0  0  0
 43121  1  0  0  0  0
 44 45  1  0  0  0  0
 44 46  1  0  0  0  0
 45122  1  0  0  0  0
 46 47  1  0  0  0  0
 46 58  2  0  0  0  0
 47 48  1  0  0  0  0
 47 56  2  0  0  0  0
 48 49  2  0  0  0  0
 48123  1  0  0  0  0
 49 50  1  0  0  0  0
 49 54  1  0  0  0  0
 50 51  2  0  0  0  0
 50 52  2  0  0  0  0
 50 53  1  0  0  0  0
 54 55  2  0  0  0  0
 54124  1  0  0  0  0
 55 56  1  0  0  0  0
 55125  1  0  0  0  0
 56 57  1  0  0  0  0
 58 59  1  0  0  0  0
 58 79  1  0  0  0  0
 59 60  2  0  0  0  0
 60 61  1  0  0  0  0
 60 78  1  0  0  0  0
 61 62  1  0  0  0  0
 61 73  2  0  0  0  0
 62 63  1  0  0  0  0
 62 71  2  0  0  0  0
 63 64  2  0  0  0  0
 63126  1  0  0  0  0
 64 65  1  0  0  0  0
 64 69  1  0  0  0  0
 65 66  2  0  0  0  0
 65 67  2  0  0  0  0
 65 68  1  0  0  0  0
 69 70  2  0  0  0  0
 69127  1  0  0  0  0
 70 71  1  0  0  0  0
 70128  1  0  0  0  0
 71 72  1  0  0  0  0
 73 74  1  0  0  0  0
 73 77  1  0  0  0  0
 74 75  2  0  0  0  0
 74129  1  0  0  0  0
 75 76  1  0  0  0  0
 75130  1  0  0  0  0
 76 77  1  0  0  0  0
 77131  1  0  0  0  0
 78 79  2  0  0  0  0
 78132  1  0  0  0  0
 79133  1  0  0  0  0
 80 81  2  0  0  0  0
 80134  1  0  0  0  0
 81135  1  0  0  0  0
 82 83  1  0  0  0  0
 82136  1  0  0  0  0
 83137  1  0  0  0  0
 84 85  1  0  0  0  0
 84138  1  6  0  0  0
 85 86  1  0  0  0  0
 85 90  2  0  0  0  0
 86 87  2  0  0  0  0
 86139  1  0  0  0  0
 87 88  1  0  0  0  0
 87140  1  0  0  0  0
 88 89  2  0  0  0  0
 88141  1  0  0  0  0
 89 90  1  0  0  0  0
 89142  1  0  0  0  0
 90 91  1  0  0  0  0
 91 92  1  0  0  0  0
 91 96  1  0  0  0  0
 92 93  1  0  0  0  0
 92143  1  0  0  0  0
 92144  1  0  0  0  0
 93 94  1  0  0  0  0
 93145  1  0  0  0  0
 93146  1  0  0  0  0
 94 95  1  0  0  0  0
 95 96  1  0  0  0  0
 95147  1  0  0  0  0
 95148  1  0  0  0  0
 96149  1  0  0  0  0
 96150  1  0  0  0  0
M  CHG  3  36  -1  53  -1  68  -1
M  END
$$$$
