5_4_6799
 OpenBabel04152301373D

133143  0  0  1  0  0  0  0  0999 V2000
    2.1424    0.0064   -0.2765 C   0  0  0  0  0  0  0  0  0  0  0  0
    0.9887    0.1827    0.7081 C   0  0  1  0  0  0  0  0  0  0  0  0
    0.1151    1.4606    0.6194 C   0  0  1  0  0  0  0  0  0  0  0  0
    0.3611    2.6042   -0.3550 C   0  0  0  0  0  0  0  0  0  0  0  0
   -0.3761    3.5841   -0.3934 O   0  0  0  0  0  0  0  0  0  0  0  0
    1.4101    2.4105   -1.1754 O   0  0  0  0  0  0  0  0  0  0  0  0
    1.5456    3.2843   -2.3140 C   0  0  0  0  0  0  0  0  0  0  0  0
    1.3595    2.4713   -3.5983 C   0  0  0  0  0  0  0  0  0  0  0  0
   -0.0013    2.1370   -3.8914 O   0  0  0  0  0  0  0  0  0  0  0  0
   -0.5378    1.0006   -3.2171 C   0  0  0  0  0  0  0  0  0  0  0  0
   -0.3092   -0.3544   -3.8940 C   0  0  0  0  0  0  0  0  0  0  0  0
    1.0838   -0.7026   -3.9088 O   0  0  0  0  0  0  0  0  0  0  0  0
    1.6939   -0.4622   -5.0924 C   0  0  0  0  0  0  0  0  0  0  0  0
    1.1563   -0.0752   -6.1222 O   0  0  0  0  0  0  0  0  0  0  0  0
    3.1594   -0.5508   -4.9478 C   0  0  0  0  0  0  0  0  0  0  0  0
    3.9147    0.3971   -5.6473 C   0  0  0  0  0  0  0  0  0  0  0  0
    5.2983    0.2842   -5.6981 C   0  0  0  0  0  0  0  0  0  0  0  0
    5.9395   -0.7796   -5.0501 C   0  0  0  0  0  0  0  0  0  0  0  0
    7.3601   -1.0494   -5.3865 C   0  0  0  0  0  0  0  0  0  0  0  0
    7.6752   -2.1497   -6.3667 C   0  0  0  0  0  0  0  0  0  0  0  0
    8.8261   -2.5053   -6.8765 N   0  0  0  0  0  0  0  0  0  0  0  0
    8.5509   -3.5725   -7.7267 C   0  0  0  0  0  0  0  0  0  0  0  0
    9.3989   -4.2555   -8.5352 C   0  0  0  0  0  0  0  0  0  0  0  0
    8.8206   -5.3943   -9.3437 C   0  0  0  0  0  0  0  0  0  0  0  0
    7.8394   -5.1840  -10.3298 C   0  0  0  0  0  0  0  0  0  0  0  0
    7.2515   -6.2808  -10.9796 C   0  0  0  0  0  0  0  0  0  0  0  0
    5.7970   -5.9940  -12.0259 S   0  0  0  0  0  0  0  0  0  0  0  0
    4.8710   -5.3748  -11.0806 O   0  0  0  0  0  0  0  0  0  0  0  0
    6.3252   -5.1220  -13.0683 O   0  0  0  0  0  0  0  0  0  0  0  0
    5.4210   -7.3362  -12.4659 O   0  5  0  0  0  0  0  0  0  0  0  0
    7.6947   -7.5840  -10.7444 C   0  0  0  0  0  0  0  0  0  0  0  0
    8.7019   -7.7970   -9.8083 C   0  0  0  0  0  0  0  0  0  0  0  0
    9.2312   -6.7169   -9.0992 C   0  0  0  0  0  0  0  0  0  0  0  0
   10.1454   -6.9849   -8.1534 F   0  0  0  0  0  0  0  0  0  0  0  0
   10.8132   -3.9823   -8.6213 C   0  0  0  0  0  0  0  0  0  0  0  0
   11.7663   -4.6057   -9.4075 C   0  0  0  0  0  0  0  0  0  0  0  0
   13.0178   -4.0647   -9.0923 C   0  0  0  0  0  0  0  0  0  0  0  0
   12.8379   -3.0406   -8.1760 C   0  0  0  0  0  0  0  0  0  0  0  0
   11.4818   -3.0105   -7.8861 N   0  0  0  0  0  0  0  0  0  0  0  0
   13.8279   -2.1475   -7.6184 C   0  0  0  0  0  0  0  0  0  0  0  0
   15.2545   -2.2651   -8.1047 C   0  0  0  0  0  0  0  0  0  0  0  0
   16.3093   -2.6005   -7.2375 C   0  0  0  0  0  0  0  0  0  0  0  0
   17.6317   -2.5896   -7.7067 C   0  0  0  0  0  0  0  0  0  0  0  0
   18.9809   -2.7718   -6.5076 S   0  0  0  0  0  0  0  0  0  0  0  0
   18.6981   -1.6924   -5.5670 O   0  0  0  0  0  0  0  0  0  0  0  0
   18.7711   -4.1258   -6.0059 O   0  0  0  0  0  0  0  0  0  0  0  0
   20.1851   -2.5898   -7.3161 O   0  5  0  0  0  0  0  0  0  0  0  0
   17.9203   -2.3442   -9.0513 C   0  0  0  0  0  0  0  0  0  0  0  0
   16.8766   -2.0691   -9.9295 C   0  0  0  0  0  0  0  0  0  0  0  0
   15.5670   -2.0047   -9.4514 C   0  0  0  0  0  0  0  0  0  0  0  0
   14.6028   -1.6775  -10.3268 F   0  0  0  0  0  0  0  0  0  0  0  0
   13.5631   -1.1635   -6.7194 C   0  0  0  0  0  0  0  0  0  0  0  0
   12.3498   -0.7984   -6.1396 N   0  0  0  0  0  0  0  0  0  0  0  0
   12.6257    0.1981   -5.3285 C   0  0  0  0  0  0  0  0  0  0  0  0
   11.6891    1.0192   -4.4748 C   0  0  0  0  0  0  0  0  0  0  0  0
   12.2118    2.1112   -3.6026 C   0  0  0  0  0  0  0  0  0  0  0  0
   12.8583    3.2343   -4.1429 C   0  0  0  0  0  0  0  0  0  0  0  0
   13.4319    4.1898   -3.2886 C   0  0  0  0  0  0  0  0  0  0  0  0
   14.4145    5.5301   -4.0167 S   0  0  0  0  0  0  0  0  0  0  0  0
   15.4347    4.7876   -4.7473 O   0  0  0  0  0  0  0  0  0  0  0  0
   13.4212    6.2260   -4.8279 O   0  0  0  0  0  0  0  0  0  0  0  0
   14.8940    6.2711   -2.8518 O   0  5  0  0  0  0  0  0  0  0  0  0
   13.3164    4.0853   -1.9007 C   0  0  0  0  0  0  0  0  0  0  0  0
   12.6429    2.9963   -1.3579 C   0  0  0  0  0  0  0  0  0  0  0  0
   12.1209    2.0152   -2.2019 C   0  0  0  0  0  0  0  0  0  0  0  0
   11.5134    0.9626   -1.6310 F   0  0  0  0  0  0  0  0  0  0  0  0
   10.3716    0.7333   -4.4968 C   0  0  0  0  0  0  0  0  0  0  0  0
    9.3299    1.4528   -3.7670 C   0  0  0  0  0  0  0  0  0  0  0  0
    8.1430    0.8658   -3.9964 C   0  0  0  0  0  0  0  0  0  0  0  0
    8.3383   -0.2549   -4.9158 C   0  0  0  0  0  0  0  0  0  0  0  0
    9.6873   -0.2563   -5.1625 N   0  0  0  0  0  0  0  0  0  0  0  0
   14.0484    0.5551   -5.2771 C   0  0  0  0  0  0  0  0  0  0  0  0
   14.5636   -0.2651   -6.1802 C   0  0  0  0  0  0  0  0  0  0  0  0
    7.1329   -3.8387   -7.6204 C   0  0  0  0  0  0  0  0  0  0  0  0
    6.5369   -2.9557   -6.8349 C   0  0  0  0  0  0  0  0  0  0  0  0
    5.1877   -1.6655   -4.2574 C   0  0  0  0  0  0  0  0  0  0  0  0
    3.7920   -1.5585   -4.2123 C   0  0  0  0  0  0  0  0  0  0  0  0
   -1.3345    0.9605    0.4517 C   0  0  0  0  0  0  0  0  0  0  0  0
   -1.2535   -0.5204    0.1517 C   0  0  0  0  0  0  0  0  0  0  0  0
    0.0372   -0.9434    0.6338 N   0  0  0  0  0  0  0  0  0  0  0  0
    0.2576   -2.2980    0.8493 C   0  0  0  0  0  0  0  0  0  0  0  0
   -0.5587   -3.1653    0.5483 O   0  0  0  0  0  0  0  0  0  0  0  0
    1.5131   -2.7301    1.4789 C   0  0  0  0  0  0  0  0  0  0  0  0
    2.2945   -3.6909    0.8512 C   0  0  0  0  0  0  0  0  0  0  0  0
    3.4838   -4.1165    1.3415 N   0  0  0  0  0  0  0  0  0  0  0  0
    3.8889   -3.5676    2.5120 C   0  0  0  0  0  0  0  0  0  0  0  0
    3.1463   -2.6345    3.2218 C   0  0  0  0  0  0  0  0  0  0  0  0
    3.6296   -2.1440    4.3960 O   0  0  0  0  0  0  0  0  0  0  0  0
    1.9263   -2.2195    2.7096 C   0  0  0  0  0  0  0  0  0  0  0  0
    2.8105    0.8382   -0.1957 H   0  0  0  0  0  0  0  0  0  0  0  0
    1.7561   -0.0453   -1.2730 H   0  0  0  0  0  0  0  0  0  0  0  0
    2.6690   -0.8973   -0.0508 H   0  0  0  0  0  0  0  0  0  0  0  0
    1.5391    0.2486    1.6233 H   0  0  0  0  0  0  0  0  0  0  0  0
    0.3933    1.9752    1.5153 H   0  0  0  0  0  0  0  0  0  0  0  0
    2.5188    3.7290   -2.3099 H   0  0  0  0  0  0  0  0  0  0  0  0
    0.8045    4.0546   -2.2659 H   0  0  0  0  0  0  0  0  0  0  0  0
    1.9150    1.5618   -3.5027 H   0  0  0  0  0  0  0  0  0  0  0  0
    1.7044    3.0863   -4.4032 H   0  0  0  0  0  0  0  0  0  0  0  0
   -1.5938    1.1449   -3.1226 H   0  0  0  0  0  0  0  0  0  0  0  0
   -0.0167    0.9474   -2.2841 H   0  0  0  0  0  0  0  0  0  0  0  0
   -0.6668   -0.3054   -4.9013 H   0  0  0  0  0  0  0  0  0  0  0  0
   -0.8379   -1.1018   -3.3401 H   0  0  0  0  0  0  0  0  0  0  0  0
    3.4434    1.1807   -6.1258 H   0  0  0  0  0  0  0  0  0  0  0  0
    5.8542    0.9844   -6.2135 H   0  0  0  0  0  0  0  0  0  0  0  0
    7.5519   -4.2238  -10.5754 H   0  0  0  0  0  0  0  0  0  0  0  0
    7.2810   -8.3780  -11.2577 H   0  0  0  0  0  0  0  0  0  0  0  0
    9.0569   -8.7510   -9.6385 H   0  0  0  0  0  0  0  0  0  0  0  0
   11.5852   -5.3431  -10.1064 H   0  0  0  0  0  0  0  0  0  0  0  0
   13.9231   -4.3762   -9.4776 H   0  0  0  0  0  0  0  0  0  0  0  0
   11.0547   -2.3906   -7.2516 H   0  0  0  0  0  0  0  0  0  0  0  0
   16.1111   -2.8544   -6.2570 H   0  0  0  0  0  0  0  0  0  0  0  0
   18.8952   -2.3667   -9.3890 H   0  0  0  0  0  0  0  0  0  0  0  0
   17.0703   -1.9132  -10.9311 H   0  0  0  0  0  0  0  0  0  0  0  0
   12.9119    3.3574   -5.1661 H   0  0  0  0  0  0  0  0  0  0  0  0
   13.7253    4.8065   -1.2862 H   0  0  0  0  0  0  0  0  0  0  0  0
   12.5297    2.9141   -0.3354 H   0  0  0  0  0  0  0  0  0  0  0  0
    9.4817    2.2807   -3.1699 H   0  0  0  0  0  0  0  0  0  0  0  0
    7.2406    1.1582   -3.5900 H   0  0  0  0  0  0  0  0  0  0  0  0
   10.1247   -0.9049   -5.7601 H   0  0  0  0  0  0  0  0  0  0  0  0
   14.5226    1.2600   -4.6912 H   0  0  0  0  0  0  0  0  0  0  0  0
   15.5556   -0.2644   -6.4648 H   0  0  0  0  0  0  0  0  0  0  0  0
    6.6487   -4.6164   -8.0955 H   0  0  0  0  0  0  0  0  0  0  0  0
    5.5346   -2.8580   -6.6095 H   0  0  0  0  0  0  0  0  0  0  0  0
    5.6658   -2.3963   -3.7075 H   0  0  0  0  0  0  0  0  0  0  0  0
    3.2365   -2.2158   -3.6428 H   0  0  0  0  0  0  0  0  0  0  0  0
   -1.8105    1.4748   -0.3569 H   0  0  0  0  0  0  0  0  0  0  0  0
   -1.9084    1.1424    1.3362 H   0  0  0  0  0  0  0  0  0  0  0  0
   -1.3339   -0.6932   -0.9012 H   0  0  0  0  0  0  0  0  0  0  0  0
   -2.0482   -1.0632    0.6194 H   0  0  0  0  0  0  0  0  0  0  0  0
    1.9528   -4.1010   -0.0320 H   0  0  0  0  0  0  0  0  0  0  0  0
    4.8006   -3.8597    2.8973 H   0  0  0  0  0  0  0  0  0  0  0  0
    4.4568   -2.4396    4.7221 H   0  0  0  0  0  0  0  0  0  0  0  0
    1.3375   -1.5483    3.2270 H   0  0  0  0  0  0  0  0  0  0  0  0
  1  2  1  0  0  0  0
  1 90  1  0  0  0  0
  1 91  1  0  0  0  0
  1 92  1  0  0  0  0
  2  3  1  0  0  0  0
  2 80  1  0  0  0  0
  2 93  1  1  0  0  0
  3 78  1  0  0  0  0
  3  4  1  0  0  0  0
  3 94  1  1  0  0  0
  4  5  2  0  0  0  0
  4  6  1  0  0  0  0
  6  7  1  0  0  0  0
  7  8  1  0  0  0  0
  7 95  1  0  0  0  0
  7 96  1  0  0  0  0
  8  9  1  0  0  0  0
  8 97  1  0  0  0  0
  8 98  1  0  0  0  0
  9 10  1  0  0  0  0
 10 11  1  0  0  0  0
 10 99  1  0  0  0  0
 10100  1  0  0  0  0
 11 12  1  0  0  0  0
 11101  1  0  0  0  0
 11102  1  0  0  0  0
 12 13  1  0  0  0  0
 13 14  2  0  0  0  0
 13 15  1  0  0  0  0
 15 16  1  0  0  0  0
 15 77  2  0  0  0  0
 16 17  2  0  0  0  0
 16103  1  0  0  0  0
 17 18  1  0  0  0  0
 17104  1  0  0  0  0
 18 19  1  0  0  0  0
 18 76  2  0  0  0  0
 19 20  1  0  0  0  0
 19 70  2  0  0  0  0
 20 21  2  0  0  0  0
 20 75  1  0  0  0  0
 21 22  1  0  0  0  0
 22 23  2  0  0  0  0
 22 74  1  0  0  0  0
 23 24  1  0  0  0  0
 23 35  1  0  0  0  0
 24 25  1  0  0  0  0
 24 33  2  0  0  0  0
 25 26  2  0  0  0  0
 25105  1  0  0  0  0
 26 27  1  0  0  0  0
 26 31  1  0  0  0  0
 27 28  2  0  0  0  0
 27 29  2  0  0  0  0
 27 30  1  0  0  0  0
 31 32  2  0  0  0  0
 31106  1  0  0  0  0
 32 33  1  0  0  0  0
 32107  1  0  0  0  0
 33 34  1  0  0  0  0
 35 36  2  0  0  0  0
 35 39  1  0  0  0  0
 36 37  1  0  0  0  0
 36108  1  0  0  0  0
 37 38  2  0  0  0  0
 37109  1  0  0  0  0
 38 39  1  0  0  0  0
 38 40  1  0  0  0  0
 39110  1  0  0  0  0
 40 41  1  0  0  0  0
 40 52  2  0  0  0  0
 41 42  1  0  0  0  0
 41 50  2  0  0  0  0
 42 43  2  0  0  0  0
 42111  1  0  0  0  0
 43 44  1  0  0  0  0
 43 48  1  0  0  0  0
 44 45  2  0  0  0  0
 44 46  2  0  0  0  0
 44 47  1  0  0  0  0
 48 49  2  0  0  0  0
 48112  1  0  0  0  0
 49 50  1  0  0  0  0
 49113  1  0  0  0  0
 50 51  1  0  0  0  0
 52 53  1  0  0  0  0
 52 73  1  0  0  0  0
 53 54  2  0  0  0  0
 54 55  1  0  0  0  0
 54 72  1  0  0  0  0
 55 56  1  0  0  0  0
 55 67  2  0  0  0  0
 56 57  1  0  0  0  0
 56 65  2  0  0  0  0
 57 58  2  0  0  0  0
 57114  1  0  0  0  0
 58 59  1  0  0  0  0
 58 63  1  0  0  0  0
 59 60  2  0  0  0  0
 59 61  2  0  0  0  0
 59 62  1  0  0  0  0
 63 64  2  0  0  0  0
 63115  1  0  0  0  0
 64 65  1  0  0  0  0
 64116  1  0  0  0  0
 65 66  1  0  0  0  0
 67 68  1  0  0  0  0
 67 71  1  0  0  0  0
 68 69  2  0  0  0  0
 68117  1  0  0  0  0
 69 70  1  0  0  0  0
 69118  1  0  0  0  0
 70 71  1  0  0  0  0
 71119  1  0  0  0  0
 72 73  2  0  0  0  0
 72120  1  0  0  0  0
 73121  1  0  0  0  0
 74 75  2  0  0  0  0
 74122  1  0  0  0  0
 75123  1  0  0  0  0
 76 77  1  0  0  0  0
 76124  1  0  0  0  0
 77125  1  0  0  0  0
 78 79  1  0  0  0  0
 78126  1  0  0  0  0
 78127  1  0  0  0  0
 79 80  1  0  0  0  0
 79128  1  0  0  0  0
 79129  1  0  0  0  0
 80 81  1  0  0  0  0
 81 82  2  0  0  0  0
 81 83  1  0  0  0  0
 83 84  1  0  0  0  0
 83 89  2  0  0  0  0
 84 85  2  0  0  0  0
 84130  1  0  0  0  0
 85 86  1  0  0  0  0
 86 87  2  0  0  0  0
 86131  1  0  0  0  0
 87 88  1  0  0  0  0
 87 89  1  0  0  0  0
 88132  1  0  0  0  0
 89133  1  0  0  0  0
M  CHG  3  30  -1  47  -1  62  -1
M  END
$$$$
