5_5_1092
 OpenBabel04152301373D

139149  0  0  1  0  0  0  0  0999 V2000
    2.6039    1.4588    1.9259 O   0  0  0  0  0  0  0  0  0  0  0  0
    1.7713    1.0121    1.1384 C   0  0  0  0  0  0  0  0  0  0  0  0
    1.8114    1.4239   -0.1534 O   0  0  0  0  0  0  0  0  0  0  0  0
    0.8376    1.1740   -1.1786 C   0  0  0  0  0  0  0  0  0  0  0  0
    1.2493    0.0568   -2.1526 C   0  0  0  0  0  0  0  0  0  0  0  0
    2.1483   -0.9299   -1.6349 O   0  0  0  0  0  0  0  0  0  0  0  0
    3.4943   -0.4641   -1.4825 C   0  0  0  0  0  0  0  0  0  0  0  0
    4.5162   -1.5860   -1.6738 C   0  0  0  0  0  0  0  0  0  0  0  0
    4.6853   -2.0852   -3.0009 O   0  0  0  0  0  0  0  0  0  0  0  0
    3.5187   -2.4856   -3.7118 C   0  0  0  0  0  0  0  0  0  0  0  0
    2.8250   -3.7856   -3.2837 C   0  0  0  0  0  0  0  0  0  0  0  0
    2.6249   -3.9210   -1.8735 O   0  0  0  0  0  0  0  0  0  0  0  0
    3.5621   -4.6805   -1.2335 C   0  0  0  0  0  0  0  0  0  0  0  0
    4.5445   -5.1739   -1.7730 O   0  0  0  0  0  0  0  0  0  0  0  0
    3.2297   -4.7830    0.2569 C   0  0  2  0  0  0  0  0  0  0  0  0
    4.1697   -5.7475    0.9321 C   0  0  0  0  0  0  0  0  0  0  0  0
    3.6365   -6.9758    0.9556 C   0  0  0  0  0  0  0  0  0  0  0  0
    2.2851   -6.9742    0.3123 C   0  0  1  0  0  0  0  0  0  0  0  0
    1.3948   -7.8637    1.0206 N   0  0  0  0  0  0  0  0  0  0  0  0
    1.3584   -9.4578    0.4910 S   0  0  0  0  0  0  0  0  0  0  0  0
    2.4928   -9.6666   -0.4032 O   0  0  0  0  0  0  0  0  0  0  0  0
    1.2131  -10.2295    1.6858 O   0  0  0  0  0  0  0  0  0  0  0  0
   -0.0809   -9.6324   -0.5000 C   0  0  0  0  0  0  0  0  0  0  0  0
   -0.4612  -10.9361   -0.8472 C   0  0  0  0  0  0  0  0  0  0  0  0
   -1.5308  -11.1483   -1.7194 C   0  0  0  0  0  0  0  0  0  0  0  0
   -2.2090  -10.0559   -2.2436 C   0  0  0  0  0  0  0  0  0  0  0  0
   -3.2013  -10.2552   -3.1227 F   0  0  0  0  0  0  0  0  0  0  0  0
   -1.8401   -8.7641   -1.8890 C   0  0  0  0  0  0  0  0  0  0  0  0
   -2.4804   -7.7159   -2.4305 F   0  0  0  0  0  0  0  0  0  0  0  0
   -0.7770   -8.5481   -1.0164 C   0  0  0  0  0  0  0  0  0  0  0  0
   -0.4283   -7.2803   -0.7566 F   0  0  0  0  0  0  0  0  0  0  0  0
    1.8967   -5.5056    0.4660 C   0  0  0  0  0  0  0  0  0  0  0  0
    0.7622    0.0410    1.6585 C   0  0  0  0  0  0  0  0  0  0  0  0
    0.2042   -0.9992    0.9125 C   0  0  0  0  0  0  0  0  0  0  0  0
   -0.7155   -1.8813    1.4778 C   0  0  0  0  0  0  0  0  0  0  0  0
   -1.0462   -1.7829    2.8305 C   0  0  0  0  0  0  0  0  0  0  0  0
   -2.0521   -2.7115    3.3919 C   0  0  0  0  0  0  0  0  0  0  0  0
   -3.4364   -2.2070    3.6634 C   0  0  0  0  0  0  0  0  0  0  0  0
   -4.4591   -2.8401    4.1696 N   0  0  0  0  0  0  0  0  0  0  0  0
   -5.4563   -1.8836    4.3190 C   0  0  0  0  0  0  0  0  0  0  0  0
   -6.6817   -2.0361    4.8758 C   0  0  0  0  0  0  0  0  0  0  0  0
   -7.4964   -0.7887    5.0935 C   0  0  0  0  0  0  0  0  0  0  0  0
   -8.0330   -0.0435    4.0309 C   0  0  0  0  0  0  0  0  0  0  0  0
   -8.6694    1.1807    4.2918 C   0  0  0  0  0  0  0  0  0  0  0  0
   -9.1346    2.2360    2.8917 S   0  0  0  0  0  0  0  0  0  0  0  0
   -7.8285    2.5620    2.3239 O   0  0  0  0  0  0  0  0  0  0  0  0
   -9.9743    1.3517    2.0919 O   0  0  0  0  0  0  0  0  0  0  0  0
   -9.8313    3.3555    3.5218 O   0  5  0  0  0  0  0  0  0  0  0  0
   -8.8637    1.6349    5.5994 C   0  0  0  0  0  0  0  0  0  0  0  0
   -8.3749    0.8777    6.6592 C   0  0  0  0  0  0  0  0  0  0  0  0
   -7.6800   -0.3042    6.4018 C   0  0  0  0  0  0  0  0  0  0  0  0
   -7.1620   -0.9614    7.4515 F   0  0  0  0  0  0  0  0  0  0  0  0
   -7.1781   -3.2992    5.3596 C   0  0  0  0  0  0  0  0  0  0  0  0
   -8.3960   -3.5840    5.9501 C   0  0  0  0  0  0  0  0  0  0  0  0
   -8.4023   -4.9387    6.3049 C   0  0  0  0  0  0  0  0  0  0  0  0
   -7.2111   -5.5106    5.8869 C   0  0  0  0  0  0  0  0  0  0  0  0
   -6.4703   -4.4941    5.3092 N   0  0  0  0  0  0  0  0  0  0  0  0
   -6.7869   -6.8821    6.0018 C   0  0  0  0  0  0  0  0  0  0  0  0
   -7.6914   -7.8566    6.7045 C   0  0  0  0  0  0  0  0  0  0  0  0
   -7.3171   -8.4054    7.9445 C   0  0  0  0  0  0  0  0  0  0  0  0
   -8.1083   -9.3981    8.5333 C   0  0  0  0  0  0  0  0  0  0  0  0
   -7.4968  -10.2170   10.0301 S   0  0  0  0  0  0  0  0  0  0  0  0
   -6.2923  -10.8792    9.5407 O   0  0  0  0  0  0  0  0  0  0  0  0
   -7.2826   -9.0946   10.9381 O   0  0  0  0  0  0  0  0  0  0  0  0
   -8.5918  -11.1113   10.4009 O   0  5  0  0  0  0  0  0  0  0  0  0
   -9.3123   -9.7990    7.9490 C   0  0  0  0  0  0  0  0  0  0  0  0
   -9.7123   -9.2218    6.7446 C   0  0  0  0  0  0  0  0  0  0  0  0
   -8.8970   -8.2757    6.1231 C   0  0  0  0  0  0  0  0  0  0  0  0
   -9.2938   -7.7810    4.9399 F   0  0  0  0  0  0  0  0  0  0  0  0
   -5.6137   -7.3897    5.5471 C   0  0  0  0  0  0  0  0  0  0  0  0
   -4.5262   -6.7402    4.9753 N   0  0  0  0  0  0  0  0  0  0  0  0
   -3.5846   -7.6522    4.8737 C   0  0  0  0  0  0  0  0  0  0  0  0
   -2.1628   -7.4986    4.3840 C   0  0  0  0  0  0  0  0  0  0  0  0
   -1.2572   -8.6885    4.3455 C   0  0  0  0  0  0  0  0  0  0  0  0
   -1.6037   -9.8213    3.5869 C   0  0  0  0  0  0  0  0  0  0  0  0
   -0.8904  -11.0209    3.7448 C   0  0  0  0  0  0  0  0  0  0  0  0
   -1.4862  -12.5108    2.9003 S   0  0  0  0  0  0  0  0  0  0  0  0
   -2.6377  -12.8700    3.7199 O   0  0  0  0  0  0  0  0  0  0  0  0
   -1.8010  -12.0191    1.5621 O   0  0  0  0  0  0  0  0  0  0  0  0
   -0.3551  -13.4325    2.9673 O   0  5  0  0  0  0  0  0  0  0  0  0
    0.2384  -11.0874    4.5634 C   0  0  0  0  0  0  0  0  0  0  0  0
    0.6383   -9.9482    5.2562 C   0  0  0  0  0  0  0  0  0  0  0  0
   -0.1191   -8.7777    5.1656 C   0  0  0  0  0  0  0  0  0  0  0  0
    0.2701   -7.7276    5.9060 F   0  0  0  0  0  0  0  0  0  0  0  0
   -1.7538   -6.2558    4.0579 C   0  0  0  0  0  0  0  0  0  0  0  0
   -0.4078   -5.8729    3.6557 C   0  0  0  0  0  0  0  0  0  0  0  0
   -0.3780   -4.5516    3.4147 C   0  0  0  0  0  0  0  0  0  0  0  0
   -1.7169   -3.9970    3.6113 C   0  0  0  0  0  0  0  0  0  0  0  0
   -2.4580   -5.0708    4.0289 N   0  0  0  0  0  0  0  0  0  0  0  0
   -3.9891   -8.9907    5.3220 C   0  0  0  0  0  0  0  0  0  0  0  0
   -5.2510   -8.7874    5.6615 C   0  0  0  0  0  0  0  0  0  0  0  0
   -4.9279   -0.6368    3.8089 C   0  0  0  0  0  0  0  0  0  0  0  0
   -3.6935   -0.7916    3.3536 C   0  0  0  0  0  0  0  0  0  0  0  0
   -0.4471   -0.7879    3.6099 C   0  0  0  0  0  0  0  0  0  0  0  0
    0.4380    0.1237    3.0233 C   0  0  0  0  0  0  0  0  0  0  0  0
    0.6942    2.0753   -1.7372 H   0  0  0  0  0  0  0  0  0  0  0  0
   -0.0593    0.8535   -0.6911 H   0  0  0  0  0  0  0  0  0  0  0  0
    1.7190    0.5160   -2.9973 H   0  0  0  0  0  0  0  0  0  0  0  0
    0.3470   -0.4696   -2.3844 H   0  0  0  0  0  0  0  0  0  0  0  0
    3.6092   -0.0565   -0.4999 H   0  0  0  0  0  0  0  0  0  0  0  0
    3.6737    0.2768   -2.2334 H   0  0  0  0  0  0  0  0  0  0  0  0
    4.2157   -2.4060   -1.0556 H   0  0  0  0  0  0  0  0  0  0  0  0
    5.4595   -1.1515   -1.4164 H   0  0  0  0  0  0  0  0  0  0  0  0
    3.7946   -2.5958   -4.7397 H   0  0  0  0  0  0  0  0  0  0  0  0
    2.8021   -1.7190   -3.5029 H   0  0  0  0  0  0  0  0  0  0  0  0
    3.4240   -4.6078   -3.6156 H   0  0  0  0  0  0  0  0  0  0  0  0
    1.8511   -3.7680   -3.7265 H   0  0  0  0  0  0  0  0  0  0  0  0
    3.2583   -3.7806    0.6300 H   0  0  0  0  0  0  0  0  0  0  0  0
    5.0924   -5.4975    1.3209 H   0  0  0  0  0  0  0  0  0  0  0  0
    4.0937   -7.8075    1.3608 H   0  0  0  0  0  0  0  0  0  0  0  0
    2.2533   -7.3165   -0.7010 H   0  0  0  0  0  0  0  0  0  0  0  0
    0.4502   -7.4876    0.9392 H   0  0  0  0  0  0  0  0  0  0  0  0
    0.0513  -11.7422   -0.4567 H   0  0  0  0  0  0  0  0  0  0  0  0
   -1.8145  -12.1078   -1.9720 H   0  0  0  0  0  0  0  0  0  0  0  0
    1.1804   -5.2162   -0.2743 H   0  0  0  0  0  0  0  0  0  0  0  0
    1.4357   -5.2838    1.4058 H   0  0  0  0  0  0  0  0  0  0  0  0
    0.4777   -1.1172   -0.0756 H   0  0  0  0  0  0  0  0  0  0  0  0
   -1.1539   -2.6104    0.8936 H   0  0  0  0  0  0  0  0  0  0  0  0
   -7.9599   -0.3939    3.0630 H   0  0  0  0  0  0  0  0  0  0  0  0
   -9.3633    2.5204    5.7763 H   0  0  0  0  0  0  0  0  0  0  0  0
   -8.5257    1.1890    7.6315 H   0  0  0  0  0  0  0  0  0  0  0  0
   -9.1663   -2.9144    6.1027 H   0  0  0  0  0  0  0  0  0  0  0  0
   -9.1663   -5.4292    6.7956 H   0  0  0  0  0  0  0  0  0  0  0  0
   -5.5727   -4.6019    4.9194 H   0  0  0  0  0  0  0  0  0  0  0  0
   -6.4614   -8.0768    8.4186 H   0  0  0  0  0  0  0  0  0  0  0  0
   -9.8996  -10.5151    8.4043 H   0  0  0  0  0  0  0  0  0  0  0  0
  -10.6097   -9.4939    6.3137 H   0  0  0  0  0  0  0  0  0  0  0  0
   -2.3836   -9.7709    2.9130 H   0  0  0  0  0  0  0  0  0  0  0  0
    0.7686  -11.9682    4.6536 H   0  0  0  0  0  0  0  0  0  0  0  0
    1.4922   -9.9682    5.8354 H   0  0  0  0  0  0  0  0  0  0  0  0
    0.3958   -6.5147    3.5695 H   0  0  0  0  0  0  0  0  0  0  0  0
    0.4570   -4.0134    3.1352 H   0  0  0  0  0  0  0  0  0  0  0  0
   -3.4062   -5.0026    4.2848 H   0  0  0  0  0  0  0  0  0  0  0  0
   -3.4350   -9.8604    5.3617 H   0  0  0  0  0  0  0  0  0  0  0  0
   -5.8965   -9.5314    5.9694 H   0  0  0  0  0  0  0  0  0  0  0  0
   -5.4451    0.2562    3.8008 H   0  0  0  0  0  0  0  0  0  0  0  0
   -3.0747   -0.1010    2.9006 H   0  0  0  0  0  0  0  0  0  0  0  0
   -0.6579   -0.7260    4.6182 H   0  0  0  0  0  0  0  0  0  0  0  0
    0.8588    0.8677    3.6016 H   0  0  0  0  0  0  0  0  0  0  0  0
  1  2  2  0  0  0  0
  2  3  1  0  0  0  0
  2 33  1  0  0  0  0
  3  4  1  0  0  0  0
  4  5  1  0  0  0  0
  4 96  1  0  0  0  0
  4 97  1  0  0  0  0
  5  6  1  0  0  0  0
  5 98  1  0  0  0  0
  5 99  1  0  0  0  0
  6  7  1  0  0  0  0
  7  8  1  0  0  0  0
  7100  1  0  0  0  0
  7101  1  0  0  0  0
  8  9  1  0  0  0  0
  8102  1  0  0  0  0
  8103  1  0  0  0  0
  9 10  1  0  0  0  0
 10 11  1  0  0  0  0
 10104  1  0  0  0  0
 10105  1  0  0  0  0
 11 12  1  0  0  0  0
 11106  1  0  0  0  0
 11107  1  0  0  0  0
 12 13  1  0  0  0  0
 13 14  2  0  0  0  0
 15 16  1  0  0  0  0
 15 32  1  0  0  0  0
 15 13  1  0  0  0  0
 15108  1  1  0  0  0
 16 17  2  0  0  0  0
 16109  1  0  0  0  0
 17 18  1  0  0  0  0
 17110  1  0  0  0  0
 18 19  1  0  0  0  0
 18 32  1  0  0  0  0
 18111  1  6  0  0  0
 19 20  1  0  0  0  0
 19112  1  0  0  0  0
 20 21  2  0  0  0  0
 20 22  2  0  0  0  0
 20 23  1  0  0  0  0
 23 24  1  0  0  0  0
 23 30  2  0  0  0  0
 24 25  2  0  0  0  0
 24113  1  0  0  0  0
 25 26  1  0  0  0  0
 25114  1  0  0  0  0
 26 27  1  0  0  0  0
 26 28  2  0  0  0  0
 28 29  1  0  0  0  0
 28 30  1  0  0  0  0
 30 31  1  0  0  0  0
 32115  1  0  0  0  0
 32116  1  0  0  0  0
 33 34  1  0  0  0  0
 33 95  2  0  0  0  0
 34 35  2  0  0  0  0
 34117  1  0  0  0  0
 35 36  1  0  0  0  0
 35118  1  0  0  0  0
 36 37  1  0  0  0  0
 36 94  2  0  0  0  0
 37 38  1  0  0  0  0
 37 88  2  0  0  0  0
 38 39  2  0  0  0  0
 38 93  1  0  0  0  0
 39 40  1  0  0  0  0
 40 41  2  0  0  0  0
 40 92  1  0  0  0  0
 41 42  1  0  0  0  0
 41 53  1  0  0  0  0
 42 43  1  0  0  0  0
 42 51  2  0  0  0  0
 43 44  2  0  0  0  0
 43119  1  0  0  0  0
 44 45  1  0  0  0  0
 44 49  1  0  0  0  0
 45 46  2  0  0  0  0
 45 47  2  0  0  0  0
 45 48  1  0  0  0  0
 49 50  2  0  0  0  0
 49120  1  0  0  0  0
 50 51  1  0  0  0  0
 50121  1  0  0  0  0
 51 52  1  0  0  0  0
 53 54  2  0  0  0  0
 53 57  1  0  0  0  0
 54 55  1  0  0  0  0
 54122  1  0  0  0  0
 55 56  2  0  0  0  0
 55123  1  0  0  0  0
 56 57  1  0  0  0  0
 56 58  1  0  0  0  0
 57124  1  0  0  0  0
 58 59  1  0  0  0  0
 58 70  2  0  0  0  0
 59 60  1  0  0  0  0
 59 68  2  0  0  0  0
 60 61  2  0  0  0  0
 60125  1  0  0  0  0
 61 62  1  0  0  0  0
 61 66  1  0  0  0  0
 62 63  2  0  0  0  0
 62 64  2  0  0  0  0
 62 65  1  0  0  0  0
 66 67  2  0  0  0  0
 66126  1  0  0  0  0
 67 68  1  0  0  0  0
 67127  1  0  0  0  0
 68 69  1  0  0  0  0
 70 71  1  0  0  0  0
 70 91  1  0  0  0  0
 71 72  2  0  0  0  0
 72 73  1  0  0  0  0
 72 90  1  0  0  0  0
 73 74  1  0  0  0  0
 73 85  2  0  0  0  0
 74 75  1  0  0  0  0
 74 83  2  0  0  0  0
 75 76  2  0  0  0  0
 75128  1  0  0  0  0
 76 77  1  0  0  0  0
 76 81  1  0  0  0  0
 77 78  2  0  0  0  0
 77 79  2  0  0  0  0
 77 80  1  0  0  0  0
 81 82  2  0  0  0  0
 81129  1  0  0  0  0
 82 83  1  0  0  0  0
 82130  1  0  0  0  0
 83 84  1  0  0  0  0
 85 86  1  0  0  0  0
 85 89  1  0  0  0  0
 86 87  2  0  0  0  0
 86131  1  0  0  0  0
 87 88  1  0  0  0  0
 87132  1  0  0  0  0
 88 89  1  0  0  0  0
 89133  1  0  0  0  0
 90 91  2  0  0  0  0
 90134  1  0  0  0  0
 91135  1  0  0  0  0
 92 93  2  0  0  0  0
 92136  1  0  0  0  0
 93137  1  0  0  0  0
 94 95  1  0  0  0  0
 94138  1  0  0  0  0
 95139  1  0  0  0  0
M  CHG  3  48  -1  65  -1  80  -1
M  END
$$$$
