5_5_7914
 OpenBabel04132311343D

152161  0  0  1  0  0  0  0  0999 V2000
    0.3437   -0.2041    1.0449 C   0  0  0  0  0  0  0  0  0  0  0  0
    0.2942   -1.0152   -0.2395 C   0  0  0  0  0  0  0  0  0  0  0  0
    1.4970   -1.9538   -0.3839 C   0  0  0  0  0  0  0  0  0  0  0  0
    1.0774   -3.3117   -0.7152 N   0  3  0  0  0  0  0  0  0  0  0  0
    2.1595   -4.2753   -0.5079 C   0  0  2  0  0  0  0  0  0  0  0  0
    2.0063   -5.5788   -1.2894 C   0  0  0  0  0  0  0  0  0  0  0  0
    2.8824   -6.5260   -0.6682 O   0  0  0  0  0  0  0  0  0  0  0  0
    3.2949   -5.9827    0.6047 C   0  0  0  0  0  0  0  0  0  0  0  0
    2.3765   -4.7953    0.9120 C   0  0  2  0  0  0  0  0  0  0  0  0
    1.1442   -5.3336    1.6473 C   0  0  0  0  0  0  0  0  0  0  0  0
    1.2155   -6.2947    2.4080 O   0  0  0  0  0  0  0  0  0  0  0  0
   -0.0295   -4.6178    1.5087 N   0  0  0  0  0  0  0  0  0  0  0  0
   -1.3604   -5.2589    1.3668 C   0  0  1  0  0  0  0  0  0  0  0  0
   -1.5743   -6.3770    2.4137 C   0  0  0  0  0  0  0  0  0  0  0  0
   -2.5451   -4.2712    1.6030 C   0  0  0  0  0  0  0  0  0  0  0  0
   -2.4359   -2.8635    1.0497 C   0  0  0  0  0  0  0  0  0  0  0  0
   -1.4715   -5.9345   -0.0492 C   0  0  0  0  0  0  0  0  0  0  0  0
   -1.2543   -7.1207   -0.2726 O   0  0  0  0  0  0  0  0  0  0  0  0
   -1.8077   -5.0498   -1.0385 O   0  0  0  0  0  0  0  0  0  0  0  0
   -2.3241   -5.6445   -2.2539 C   0  0  0  0  0  0  0  0  0  0  0  0
   -1.3112   -5.7824   -3.3953 C   0  0  0  0  0  0  0  0  0  0  0  0
   -1.2283   -4.5915   -4.1876 O   0  0  0  0  0  0  0  0  0  0  0  0
   -0.2404   -3.6662   -3.7337 C   0  0  0  0  0  0  0  0  0  0  0  0
   -0.8723   -2.3401   -3.3063 C   0  0  0  0  0  0  0  0  0  0  0  0
   -1.5235   -1.6153   -4.3505 O   0  0  0  0  0  0  0  0  0  0  0  0
   -0.6718   -1.1466   -5.3954 C   0  0  0  0  0  0  0  0  0  0  0  0
    0.1425    0.1094   -5.0564 C   0  0  0  0  0  0  0  0  0  0  0  0
    1.2359   -0.1281   -4.1437 O   0  0  0  0  0  0  0  0  0  0  0  0
    2.1595    0.8638   -4.1415 C   0  0  0  0  0  0  0  0  0  0  0  0
    2.1922    1.8308   -4.9201 O   0  0  0  0  0  0  0  0  0  0  0  0
    3.1509    0.6984   -3.0680 C   0  0  0  0  0  0  0  0  0  0  0  0
    2.7381    0.8118   -1.7408 C   0  0  0  0  0  0  0  0  0  0  0  0
    3.6644    0.7486   -0.6962 C   0  0  0  0  0  0  0  0  0  0  0  0
    5.0355    0.7010   -0.9724 C   0  0  0  0  0  0  0  0  0  0  0  0
    5.9726    1.0875    0.1180 C   0  0  0  0  0  0  0  0  0  0  0  0
    6.1192    2.5616    0.4053 C   0  0  0  0  0  0  0  0  0  0  0  0
    6.8897    3.1747    1.2642 N   0  0  0  0  0  0  0  0  0  0  0  0
    6.5838    4.5266    1.1438 C   0  0  0  0  0  0  0  0  0  0  0  0
    7.1356    5.5857    1.7834 C   0  0  0  0  0  0  0  0  0  0  0  0
    6.6425    6.9471    1.3666 C   0  0  0  0  0  0  0  0  0  0  0  0
    5.3331    7.3782    1.6455 C   0  0  0  0  0  0  0  0  0  0  0  0
    4.8547    8.5656    1.0697 C   0  0  0  0  0  0  0  0  0  0  0  0
    3.0843    8.9437    1.2008 S   0  0  0  0  0  0  0  0  0  0  0  0
    2.4833    7.7691    0.5730 O   0  0  0  0  0  0  0  0  0  0  0  0
    2.8936    9.0659    2.6410 O   0  0  0  0  0  0  0  0  0  0  0  0
    2.9422   10.1863    0.4443 O   0  5  0  0  0  0  0  0  0  0  0  0
    5.6858    9.3835    0.2993 C   0  0  0  0  0  0  0  0  0  0  0  0
    6.9997    8.9884    0.0658 C   0  0  0  0  0  0  0  0  0  0  0  0
    7.4579    7.7725    0.5731 C   0  0  0  0  0  0  0  0  0  0  0  0
    8.7015    7.3891    0.2437 F   0  0  0  0  0  0  0  0  0  0  0  0
    8.2263    5.4707    2.7139 C   0  0  0  0  0  0  0  0  0  0  0  0
    8.9789    6.4735    3.2975 C   0  0  0  0  0  0  0  0  0  0  0  0
    9.9750    5.8734    4.0777 C   0  0  0  0  0  0  0  0  0  0  0  0
    9.7970    4.4993    4.0386 C   0  0  0  0  0  0  0  0  0  0  0  0
    8.7320    4.2665    3.1854 N   0  0  0  0  0  0  0  0  0  0  0  0
   10.5340    3.4736    4.7370 C   0  0  0  0  0  0  0  0  0  0  0  0
   11.6036    3.9104    5.7072 C   0  0  0  0  0  0  0  0  0  0  0  0
   12.9660    3.6556    5.4736 C   0  0  0  0  0  0  0  0  0  0  0  0
   13.9215    4.0417    6.4262 C   0  0  0  0  0  0  0  0  0  0  0  0
   15.6504    3.5524    6.1764 S   0  0  0  0  0  0  0  0  0  0  0  0
   15.5443    2.1011    6.0672 O   0  0  0  0  0  0  0  0  0  0  0  0
   15.9998    4.2602    4.9489 O   0  0  0  0  0  0  0  0  0  0  0  0
   16.3216    4.0358    7.3817 O   0  5  0  0  0  0  0  0  0  0  0  0
   13.5524    4.7365    7.5814 C   0  0  0  0  0  0  0  0  0  0  0  0
   12.2085    5.0251    7.8007 C   0  0  0  0  0  0  0  0  0  0  0  0
   11.2493    4.5980    6.8818 C   0  0  0  0  0  0  0  0  0  0  0  0
    9.9625    4.8706    7.1516 F   0  0  0  0  0  0  0  0  0  0  0  0
   10.3074    2.1395    4.6185 C   0  0  0  0  0  0  0  0  0  0  0  0
    9.3710    1.4653    3.8351 N   0  0  0  0  0  0  0  0  0  0  0  0
    9.5709    0.1850    4.0562 C   0  0  0  0  0  0  0  0  0  0  0  0
    8.8355   -1.0107    3.4824 C   0  0  0  0  0  0  0  0  0  0  0  0
    9.2343   -2.3974    3.8842 C   0  0  0  0  0  0  0  0  0  0  0  0
    9.1620   -2.8304    5.2201 C   0  0  0  0  0  0  0  0  0  0  0  0
    9.6838   -4.0856    5.5822 C   0  0  0  0  0  0  0  0  0  0  0  0
    9.7551   -4.5318    7.3415 S   0  0  0  0  0  0  0  0  0  0  0  0
   10.5682   -3.4515    7.8881 O   0  0  0  0  0  0  0  0  0  0  0  0
    8.3441   -4.5248    7.7123 O   0  0  0  0  0  0  0  0  0  0  0  0
   10.3893   -5.8484    7.3338 O   0  5  0  0  0  0  0  0  0  0  0  0
   10.2164   -4.9537    4.6271 C   0  0  0  0  0  0  0  0  0  0  0  0
   10.2578   -4.5504    3.2976 C   0  0  0  0  0  0  0  0  0  0  0  0
    9.7962   -3.2811    2.9433 C   0  0  0  0  0  0  0  0  0  0  0  0
    9.9135   -2.9183    1.6560 F   0  0  0  0  0  0  0  0  0  0  0  0
    7.8908   -0.7994    2.5382 C   0  0  0  0  0  0  0  0  0  0  0  0
    7.1189   -1.8297    1.8414 C   0  0  0  0  0  0  0  0  0  0  0  0
    6.3771   -1.2572    0.8739 C   0  0  0  0  0  0  0  0  0  0  0  0
    6.5719    0.1900    0.9231 C   0  0  0  0  0  0  0  0  0  0  0  0
    7.4526    0.3732    1.9637 N   0  0  0  0  0  0  0  0  0  0  0  0
   10.6709   -0.0937    4.9913 C   0  0  0  0  0  0  0  0  0  0  0  0
   11.0561    1.1273    5.3328 C   0  0  0  0  0  0  0  0  0  0  0  0
    5.5474    4.6410    0.1432 C   0  0  0  0  0  0  0  0  0  0  0  0
    5.2402    3.4599   -0.3624 C   0  0  0  0  0  0  0  0  0  0  0  0
    5.4573    0.6141   -2.3101 C   0  0  0  0  0  0  0  0  0  0  0  0
    4.5163    0.6054   -3.3547 C   0  0  0  0  0  0  0  0  0  0  0  0
   -0.5146    0.4327    1.0979 H   0  0  0  0  0  0  0  0  0  0  0  0
    1.2318    0.3926    1.0559 H   0  0  0  0  0  0  0  0  0  0  0  0
    0.3487   -0.8666    1.8851 H   0  0  0  0  0  0  0  0  0  0  0  0
    0.2819   -0.3418   -1.0710 H   0  0  0  0  0  0  0  0  0  0  0  0
   -0.5890   -1.6185   -0.2108 H   0  0  0  0  0  0  0  0  0  0  0  0
    2.0369   -1.9721    0.5397 H   0  0  0  0  0  0  0  0  0  0  0  0
    2.1144   -1.5894   -1.1782 H   0  0  0  0  0  0  0  0  0  0  0  0
    0.7915   -3.3404   -1.6939 H   0  0  0  0  0  0  0  0  0  0  0  0
    0.3026   -3.5650   -0.1020 H   0  0  0  0  0  0  0  0  0  0  0  0
    2.9693   -3.6537   -0.8286 H   0  0  0  0  0  0  0  0  0  0  0  0
    2.2845   -5.4323   -2.3122 H   0  0  0  0  0  0  0  0  0  0  0  0
    0.9928   -5.9216   -1.2785 H   0  0  0  0  0  0  0  0  0  0  0  0
    4.3119   -5.6547    0.5506 H   0  0  0  0  0  0  0  0  0  0  0  0
    3.2261   -6.7239    1.3733 H   0  0  0  0  0  0  0  0  0  0  0  0
    2.7209   -4.0148    1.5579 H   0  0  0  0  0  0  0  0  0  0  0  0
    0.0195   -3.6345    1.5038 H   0  0  0  0  0  0  0  0  0  0  0  0
   -1.5071   -5.9619    3.3976 H   0  0  0  0  0  0  0  0  0  0  0  0
   -0.8226   -7.1286    2.2915 H   0  0  0  0  0  0  0  0  0  0  0  0
   -2.5413   -6.8140    2.2763 H   0  0  0  0  0  0  0  0  0  0  0  0
   -2.6781   -4.1851    2.6612 H   0  0  0  0  0  0  0  0  0  0  0  0
   -3.3586   -4.7037    1.0590 H   0  0  0  0  0  0  0  0  0  0  0  0
   -1.6375   -2.3480    1.5413 H   0  0  0  0  0  0  0  0  0  0  0  0
   -3.3547   -2.3417    1.2184 H   0  0  0  0  0  0  0  0  0  0  0  0
   -2.2384   -2.9076   -0.0010 H   0  0  0  0  0  0  0  0  0  0  0  0
   -3.1335   -5.0371   -2.6014 H   0  0  0  0  0  0  0  0  0  0  0  0
   -2.6170   -6.6406   -1.9954 H   0  0  0  0  0  0  0  0  0  0  0  0
   -1.6083   -6.5955   -4.0242 H   0  0  0  0  0  0  0  0  0  0  0  0
   -0.3485   -5.9587   -2.9627 H   0  0  0  0  0  0  0  0  0  0  0  0
    0.4539   -3.4814   -4.5266 H   0  0  0  0  0  0  0  0  0  0  0  0
    0.2554   -4.0916   -2.8863 H   0  0  0  0  0  0  0  0  0  0  0  0
   -0.0995   -1.7191   -2.9038 H   0  0  0  0  0  0  0  0  0  0  0  0
   -1.6332   -2.5877   -2.5959 H   0  0  0  0  0  0  0  0  0  0  0  0
   -1.2815   -0.9267   -6.2467 H   0  0  0  0  0  0  0  0  0  0  0  0
    0.0405   -1.9254   -5.5716 H   0  0  0  0  0  0  0  0  0  0  0  0
   -0.5155    0.8276   -4.6135 H   0  0  0  0  0  0  0  0  0  0  0  0
    0.5736    0.4554   -5.9725 H   0  0  0  0  0  0  0  0  0  0  0  0
    1.7371    0.9439   -1.5275 H   0  0  0  0  0  0  0  0  0  0  0  0
    3.3362    0.7370    0.2822 H   0  0  0  0  0  0  0  0  0  0  0  0
    4.7269    6.8242    2.2705 H   0  0  0  0  0  0  0  0  0  0  0  0
    5.3296   10.2696   -0.0917 H   0  0  0  0  0  0  0  0  0  0  0  0
    7.6328    9.5929   -0.4808 H   0  0  0  0  0  0  0  0  0  0  0  0
    8.8319    7.4880    3.1786 H   0  0  0  0  0  0  0  0  0  0  0  0
   10.7169    6.3706    4.5948 H   0  0  0  0  0  0  0  0  0  0  0  0
    8.3839    3.3768    2.9476 H   0  0  0  0  0  0  0  0  0  0  0  0
   13.2629    3.1859    4.6040 H   0  0  0  0  0  0  0  0  0  0  0  0
   14.2679    5.0321    8.2638 H   0  0  0  0  0  0  0  0  0  0  0  0
   11.9226    5.5531    8.6400 H   0  0  0  0  0  0  0  0  0  0  0  0
    8.7260   -2.2272    5.9350 H   0  0  0  0  0  0  0  0  0  0  0  0
   10.5741   -5.8812    4.9042 H   0  0  0  0  0  0  0  0  0  0  0  0
   10.6284   -5.1869    2.5748 H   0  0  0  0  0  0  0  0  0  0  0  0
    7.1399   -2.8385    2.0579 H   0  0  0  0  0  0  0  0  0  0  0  0
    5.7702   -1.7588    0.2068 H   0  0  0  0  0  0  0  0  0  0  0  0
    7.7435    1.2624    2.2702 H   0  0  0  0  0  0  0  0  0  0  0  0
   11.0456   -1.0040    5.3012 H   0  0  0  0  0  0  0  0  0  0  0  0
   11.7970    1.3311    6.0217 H   0  0  0  0  0  0  0  0  0  0  0  0
    5.1050    5.5295   -0.1395 H   0  0  0  0  0  0  0  0  0  0  0  0
    4.5605    3.2270   -1.1032 H   0  0  0  0  0  0  0  0  0  0  0  0
    6.4646    0.5563   -2.5272 H   0  0  0  0  0  0  0  0  0  0  0  0
    4.8336    0.5303   -4.3338 H   0  0  0  0  0  0  0  0  0  0  0  0
  1  2  1  0  0  0  0
  1 94  1  0  0  0  0
  1 95  1  0  0  0  0
  1 96  1  0  0  0  0
  2  3  1  0  0  0  0
  2 97  1  0  0  0  0
  2 98  1  0  0  0  0
  3  4  1  0  0  0  0
  3 99  1  0  0  0  0
  3100  1  0  0  0  0
  4  5  1  0  0  0  0
  4101  1  0  0  0  0
  4102  1  0  0  0  0
  5  6  1  0  0  0  0
  5  9  1  0  0  0  0
  5103  1  6  0  0  0
  6  7  1  0  0  0  0
  6104  1  0  0  0  0
  6105  1  0  0  0  0
  7  8  1  0  0  0  0
  8  9  1  0  0  0  0
  8106  1  0  0  0  0
  8107  1  0  0  0  0
  9 10  1  0  0  0  0
  9108  1  1  0  0  0
 10 11  2  0  0  0  0
 10 12  1  0  0  0  0
 12 13  1  0  0  0  0
 12109  1  0  0  0  0
 13 14  1  0  0  0  0
 13 15  1  0  0  0  0
 13 17  1  6  0  0  0
 14110  1  0  0  0  0
 14111  1  0  0  0  0
 14112  1  0  0  0  0
 15 16  1  0  0  0  0
 15113  1  0  0  0  0
 15114  1  0  0  0  0
 16115  1  0  0  0  0
 16116  1  0  0  0  0
 16117  1  0  0  0  0
 17 18  2  0  0  0  0
 17 19  1  0  0  0  0
 19 20  1  0  0  0  0
 20 21  1  0  0  0  0
 20118  1  0  0  0  0
 20119  1  0  0  0  0
 21 22  1  0  0  0  0
 21120  1  0  0  0  0
 21121  1  0  0  0  0
 22 23  1  0  0  0  0
 23 24  1  0  0  0  0
 23122  1  0  0  0  0
 23123  1  0  0  0  0
 24 25  1  0  0  0  0
 24124  1  0  0  0  0
 24125  1  0  0  0  0
 25 26  1  0  0  0  0
 26 27  1  0  0  0  0
 26126  1  0  0  0  0
 26127  1  0  0  0  0
 27 28  1  0  0  0  0
 27128  1  0  0  0  0
 27129  1  0  0  0  0
 28 29  1  0  0  0  0
 29 30  2  0  0  0  0
 29 31  1  0  0  0  0
 31 32  1  0  0  0  0
 31 93  2  0  0  0  0
 32 33  2  0  0  0  0
 32130  1  0  0  0  0
 33 34  1  0  0  0  0
 33131  1  0  0  0  0
 34 35  1  0  0  0  0
 34 92  2  0  0  0  0
 35 36  1  0  0  0  0
 35 86  2  0  0  0  0
 36 37  2  0  0  0  0
 36 91  1  0  0  0  0
 37 38  1  0  0  0  0
 38 39  2  0  0  0  0
 38 90  1  0  0  0  0
 39 40  1  0  0  0  0
 39 51  1  0  0  0  0
 40 41  1  0  0  0  0
 40 49  2  0  0  0  0
 41 42  2  0  0  0  0
 41132  1  0  0  0  0
 42 43  1  0  0  0  0
 42 47  1  0  0  0  0
 43 44  2  0  0  0  0
 43 45  2  0  0  0  0
 43 46  1  0  0  0  0
 47 48  2  0  0  0  0
 47133  1  0  0  0  0
 48 49  1  0  0  0  0
 48134  1  0  0  0  0
 49 50  1  0  0  0  0
 51 52  2  0  0  0  0
 51 55  1  0  0  0  0
 52 53  1  0  0  0  0
 52135  1  0  0  0  0
 53 54  2  0  0  0  0
 53136  1  0  0  0  0
 54 55  1  0  0  0  0
 54 56  1  0  0  0  0
 55137  1  0  0  0  0
 56 57  1  0  0  0  0
 56 68  2  0  0  0  0
 57 58  1  0  0  0  0
 57 66  2  0  0  0  0
 58 59  2  0  0  0  0
 58138  1  0  0  0  0
 59 60  1  0  0  0  0
 59 64  1  0  0  0  0
 60 61  2  0  0  0  0
 60 62  2  0  0  0  0
 60 63  1  0  0  0  0
 64 65  2  0  0  0  0
 64139  1  0  0  0  0
 65 66  1  0  0  0  0
 65140  1  0  0  0  0
 66 67  1  0  0  0  0
 68 69  1  0  0  0  0
 68 89  1  0  0  0  0
 69 70  2  0  0  0  0
 70 71  1  0  0  0  0
 70 88  1  0  0  0  0
 71 72  1  0  0  0  0
 71 83  2  0  0  0  0
 72 73  1  0  0  0  0
 72 81  2  0  0  0  0
 73 74  2  0  0  0  0
 73141  1  0  0  0  0
 74 75  1  0  0  0  0
 74 79  1  0  0  0  0
 75 76  2  0  0  0  0
 75 77  2  0  0  0  0
 75 78  1  0  0  0  0
 79 80  2  0  0  0  0
 79142  1  0  0  0  0
 80 81  1  0  0  0  0
 80143  1  0  0  0  0
 81 82  1  0  0  0  0
 83 84  1  0  0  0  0
 83 87  1  0  0  0  0
 84 85  2  0  0  0  0
 84144  1  0  0  0  0
 85 86  1  0  0  0  0
 85145  1  0  0  0  0
 86 87  1  0  0  0  0
 87146  1  0  0  0  0
 88 89  2  0  0  0  0
 88147  1  0  0  0  0
 89148  1  0  0  0  0
 90 91  2  0  0  0  0
 90149  1  0  0  0  0
 91150  1  0  0  0  0
 92 93  1  0  0  0  0
 92151  1  0  0  0  0
 93152  1  0  0  0  0
M  CHG  4   4   1  46  -1  63  -1  78  -1
M  END
$$$$
