5_6_4045
 OpenBabel04152301373D

154164  0  0  0  0  0  0  0  0999 V2000
    2.3037   -0.6982    0.1450 C   0  0  0  0  0  0  0  0  0  0  0  0
    1.8768   -1.6575    1.2510 C   0  0  0  0  0  0  0  0  0  0  0  0
    2.1284   -1.2206    2.7127 C   0  0  0  0  0  0  0  0  0  0  0  0
    1.4782    0.0256    3.3000 C   0  0  0  0  0  0  0  0  0  0  0  0
    0.6081   -0.0425    4.3936 C   0  0  0  0  0  0  0  0  0  0  0  0
    0.0637    1.1471    4.8434 C   0  0  0  0  0  0  0  0  0  0  0  0
   -1.0662    1.2651    5.6350 O   0  0  0  0  0  0  0  0  0  0  0  0
   -1.6459    0.2430    6.4441 C   0  0  0  0  0  0  0  0  0  0  0  0
   -2.9596   -0.6199    6.1987 C   0  0  0  0  0  0  0  0  0  0  0  0
   -3.0966   -1.7423    6.6767 O   0  0  0  0  0  0  0  0  0  0  0  0
   -3.9039   -0.0249    5.4229 O   0  0  0  0  0  0  0  0  0  0  0  0
   -4.9705   -0.8375    4.8631 C   0  0  0  0  0  0  0  0  0  0  0  0
   -4.6886   -1.4831    3.4926 C   0  0  0  0  0  0  0  0  0  0  0  0
   -3.3691   -1.8406    3.1719 O   0  0  0  0  0  0  0  0  0  0  0  0
   -2.3551   -0.8564    3.1993 C   0  0  0  0  0  0  0  0  0  0  0  0
   -2.5852    0.6882    3.1147 C   0  0  0  0  0  0  0  0  0  0  0  0
   -3.0142    1.4916    2.0423 O   0  0  0  0  0  0  0  0  0  0  0  0
   -4.0114    1.0463    1.1737 C   0  0  0  0  0  0  0  0  0  0  0  0
   -3.4712    0.0580    0.1481 C   0  0  0  0  0  0  0  0  0  0  0  0
   -2.2794   -0.5801    0.5476 O   0  0  0  0  0  0  0  0  0  0  0  0
   -1.0337    0.0154    0.2130 C   0  0  0  0  0  0  0  0  0  0  0  0
   -0.6750    1.4698    0.4986 C   0  0  0  0  0  0  0  0  0  0  0  0
   -1.4974    2.4411   -0.1079 O   0  0  0  0  0  0  0  0  0  0  0  0
   -1.5319    2.4483   -1.4516 C   0  0  0  0  0  0  0  0  0  0  0  0
   -0.8953    1.7784   -2.2352 O   0  0  0  0  0  0  0  0  0  0  0  0
   -2.7086    3.2728   -1.7011 C   0  0  0  0  0  0  0  0  0  0  0  0
   -3.8618    2.6280   -2.1536 C   0  0  0  0  0  0  0  0  0  0  0  0
   -5.0664    3.2979   -2.0954 C   0  0  0  0  0  0  0  0  0  0  0  0
   -5.0808    4.6304   -1.6678 C   0  0  0  0  0  0  0  0  0  0  0  0
   -6.2734    5.4258   -1.9627 C   0  0  0  0  0  0  0  0  0  0  0  0
   -6.2613    6.1813   -3.2533 C   0  0  0  0  0  0  0  0  0  0  0  0
   -7.1597    6.9826   -3.7468 N   0  0  0  0  0  0  0  0  0  0  0  0
   -6.6377    7.4165   -4.9580 C   0  0  0  0  0  0  0  0  0  0  0  0
   -7.2169    8.2364   -5.8614 C   0  0  0  0  0  0  0  0  0  0  0  0
   -6.4233    8.5904   -7.0897 C   0  0  0  0  0  0  0  0  0  0  0  0
   -6.0422    7.6225   -8.0353 C   0  0  0  0  0  0  0  0  0  0  0  0
   -5.2323    7.9880   -9.1203 C   0  0  0  0  0  0  0  0  0  0  0  0
   -4.5390    6.6782  -10.1654 S   0  0  0  0  0  0  0  0  0  0  0  0
   -3.7718    5.9015   -9.1944 O   0  0  0  0  0  0  0  0  0  0  0  0
   -5.7336    6.0331  -10.6976 O   0  0  0  0  0  0  0  0  0  0  0  0
   -3.7358    7.4095  -11.1431 O   0  5  0  0  0  0  0  0  0  0  0  0
   -4.8751    9.3205   -9.3397 C   0  0  0  0  0  0  0  0  0  0  0  0
   -5.2791   10.2899   -8.4267 C   0  0  0  0  0  0  0  0  0  0  0  0
   -6.0141    9.9180   -7.3014 C   0  0  0  0  0  0  0  0  0  0  0  0
   -6.3111   10.8749   -6.4078 F   0  0  0  0  0  0  0  0  0  0  0  0
   -8.5146    8.8197   -5.6561 C   0  0  0  0  0  0  0  0  0  0  0  0
   -9.2172    9.6667   -6.4894 C   0  0  0  0  0  0  0  0  0  0  0  0
  -10.3794   10.0590   -5.8210 C   0  0  0  0  0  0  0  0  0  0  0  0
  -10.4563    9.3741   -4.6165 C   0  0  0  0  0  0  0  0  0  0  0  0
   -9.2965    8.6269   -4.5224 N   0  0  0  0  0  0  0  0  0  0  0  0
  -11.5183    9.4004   -3.6377 C   0  0  0  0  0  0  0  0  0  0  0  0
  -12.7305   10.2399   -3.9534 C   0  0  0  0  0  0  0  0  0  0  0  0
  -13.0922   11.3427   -3.1632 C   0  0  0  0  0  0  0  0  0  0  0  0
  -14.2633   12.0536   -3.4574 C   0  0  0  0  0  0  0  0  0  0  0  0
  -14.8379   13.2998   -2.2736 S   0  0  0  0  0  0  0  0  0  0  0  0
  -14.9748   12.5135   -1.0518 O   0  0  0  0  0  0  0  0  0  0  0  0
  -13.7487   14.2707   -2.2878 O   0  0  0  0  0  0  0  0  0  0  0  0
  -16.0947   13.7687   -2.8541 O   0  5  0  0  0  0  0  0  0  0  0  0
  -15.0294   11.7522   -4.5865 C   0  0  0  0  0  0  0  0  0  0  0  0
  -14.6482   10.6925   -5.4036 C   0  0  0  0  0  0  0  0  0  0  0  0
  -13.5316    9.9293   -5.0672 C   0  0  0  0  0  0  0  0  0  0  0  0
  -13.2332    8.8830   -5.8547 F   0  0  0  0  0  0  0  0  0  0  0  0
  -11.5428    8.6954   -2.4763 C   0  0  0  0  0  0  0  0  0  0  0  0
  -10.6022    7.8135   -1.9513 N   0  0  0  0  0  0  0  0  0  0  0  0
  -11.0912    7.4101   -0.7982 C   0  0  0  0  0  0  0  0  0  0  0  0
  -10.5132    6.4170    0.1840 C   0  0  0  0  0  0  0  0  0  0  0  0
  -11.2005    6.1073    1.4690 C   0  0  0  0  0  0  0  0  0  0  0  0
  -12.4923    5.5615    1.4865 C   0  0  0  0  0  0  0  0  0  0  0  0
  -13.1704    5.4076    2.7054 C   0  0  0  0  0  0  0  0  0  0  0  0
  -14.9208    4.9356    2.6647 S   0  0  0  0  0  0  0  0  0  0  0  0
  -15.4869    5.9784    1.8170 O   0  0  0  0  0  0  0  0  0  0  0  0
  -14.8589    3.5985    2.0841 O   0  0  0  0  0  0  0  0  0  0  0  0
  -15.3184    4.9865    4.0699 O   0  5  0  0  0  0  0  0  0  0  0  0
  -12.5544    5.7052    3.9227 C   0  0  0  0  0  0  0  0  0  0  0  0
  -11.2538    6.1972    3.9188 C   0  0  0  0  0  0  0  0  0  0  0  0
  -10.6028    6.4194    2.7045 C   0  0  0  0  0  0  0  0  0  0  0  0
   -9.3695    6.9485    2.7500 F   0  0  0  0  0  0  0  0  0  0  0  0
   -9.3293    5.8524   -0.1192 C   0  0  0  0  0  0  0  0  0  0  0  0
   -8.5972    4.8815    0.6898 C   0  0  0  0  0  0  0  0  0  0  0  0
   -7.4058    4.6429    0.1147 C   0  0  0  0  0  0  0  0  0  0  0  0
   -7.3219    5.4117   -1.1280 C   0  0  0  0  0  0  0  0  0  0  0  0
   -8.5171    6.0671   -1.2050 N   0  0  0  0  0  0  0  0  0  0  0  0
  -12.3787    8.0165   -0.4459 C   0  0  0  0  0  0  0  0  0  0  0  0
  -12.6327    8.7457   -1.5217 C   0  0  0  0  0  0  0  0  0  0  0  0
   -5.3304    6.8240   -5.1091 C   0  0  0  0  0  0  0  0  0  0  0  0
   -5.0656    6.0111   -4.1016 C   0  0  0  0  0  0  0  0  0  0  0  0
   -3.9181    5.2794   -1.2234 C   0  0  0  0  0  0  0  0  0  0  0  0
   -2.7196    4.5913   -1.2337 C   0  0  0  0  0  0  0  0  0  0  0  0
    0.4537    2.3353    4.3106 N   0  0  0  0  0  0  0  0  0  0  0  0
    1.3424    2.3399    3.2915 C   0  0  0  0  0  0  0  0  0  0  0  0
    1.6921    3.5818    2.7267 N   0  0  0  0  0  0  0  0  0  0  0  0
    2.4058    3.8210    1.5412 C   0  0  0  0  0  0  0  0  0  0  0  0
    3.7556    4.1794    1.5672 C   0  0  0  0  0  0  0  0  0  0  0  0
    4.4885    4.3186    0.3760 C   0  0  0  0  0  0  0  0  0  0  0  0
    3.8776    4.0971   -0.8630 C   0  0  0  0  0  0  0  0  0  0  0  0
    4.6523    4.0960   -2.0650 C   0  0  0  0  0  0  0  0  0  0  0  0
    5.3100    4.0722   -3.0313 N   0  0  0  0  0  0  0  0  0  0  0  0
    2.5050    3.8652   -0.9035 C   0  0  0  0  0  0  0  0  0  0  0  0
    1.7769    3.7984    0.2925 C   0  0  0  0  0  0  0  0  0  0  0  0
    1.8517    1.2087    2.7695 N   0  0  0  0  0  0  0  0  0  0  0  0
    2.0712   -1.1262   -0.8077 H   0  0  0  0  0  0  0  0  0  0  0  0
    3.3575   -0.5247    0.2105 H   0  0  0  0  0  0  0  0  0  0  0  0
    1.7819    0.2293    0.2563 H   0  0  0  0  0  0  0  0  0  0  0  0
    2.4009   -2.5775    1.0970 H   0  0  0  0  0  0  0  0  0  0  0  0
    0.8120   -1.7166    1.1640 H   0  0  0  0  0  0  0  0  0  0  0  0
    3.1851   -1.0814    2.8073 H   0  0  0  0  0  0  0  0  0  0  0  0
    1.6591   -2.0053    3.2685 H   0  0  0  0  0  0  0  0  0  0  0  0
    0.3820   -0.9422    4.8456 H   0  0  0  0  0  0  0  0  0  0  0  0
   -1.8156    0.7185    7.3875 H   0  0  0  0  0  0  0  0  0  0  0  0
   -0.9279   -0.5250    6.2451 H   0  0  0  0  0  0  0  0  0  0  0  0
   -5.8344   -0.2148    4.7588 H   0  0  0  0  0  0  0  0  0  0  0  0
   -5.0944   -1.6541    5.5434 H   0  0  0  0  0  0  0  0  0  0  0  0
   -5.0174   -0.7913    2.7455 H   0  0  0  0  0  0  0  0  0  0  0  0
   -5.2069   -2.4182    3.5356 H   0  0  0  0  0  0  0  0  0  0  0  0
   -1.7106   -1.0916    2.3782 H   0  0  0  0  0  0  0  0  0  0  0  0
   -2.0376   -0.9429    4.2174 H   0  0  0  0  0  0  0  0  0  0  0  0
   -1.6387    1.1058    3.3880 H   0  0  0  0  0  0  0  0  0  0  0  0
   -3.4930    0.7211    3.6802 H   0  0  0  0  0  0  0  0  0  0  0  0
   -4.4232    1.8889    0.6587 H   0  0  0  0  0  0  0  0  0  0  0  0
   -4.7583    0.5466    1.7545 H   0  0  0  0  0  0  0  0  0  0  0  0
   -3.2822    0.5864   -0.7630 H   0  0  0  0  0  0  0  0  0  0  0  0
   -4.2107   -0.7065    0.0315 H   0  0  0  0  0  0  0  0  0  0  0  0
   -0.9304   -0.1055   -0.8451 H   0  0  0  0  0  0  0  0  0  0  0  0
   -0.3797   -0.4905    0.8922 H   0  0  0  0  0  0  0  0  0  0  0  0
    0.3270    1.6321    0.1602 H   0  0  0  0  0  0  0  0  0  0  0  0
   -0.8081    1.5975    1.5526 H   0  0  0  0  0  0  0  0  0  0  0  0
   -3.8137    1.6665   -2.5253 H   0  0  0  0  0  0  0  0  0  0  0  0
   -5.9432    2.8239   -2.3630 H   0  0  0  0  0  0  0  0  0  0  0  0
   -6.3576    6.6454   -7.9313 H   0  0  0  0  0  0  0  0  0  0  0  0
   -4.3187    9.5827  -10.1683 H   0  0  0  0  0  0  0  0  0  0  0  0
   -5.0356   11.2807   -8.5818 H   0  0  0  0  0  0  0  0  0  0  0  0
   -8.9341    9.9584   -7.4380 H   0  0  0  0  0  0  0  0  0  0  0  0
  -11.0680   10.7457   -6.1664 H   0  0  0  0  0  0  0  0  0  0  0  0
   -9.0594    8.0446   -3.7648 H   0  0  0  0  0  0  0  0  0  0  0  0
  -12.4981   11.6284   -2.3692 H   0  0  0  0  0  0  0  0  0  0  0  0
  -15.8684   12.3093   -4.8118 H   0  0  0  0  0  0  0  0  0  0  0  0
  -15.1895   10.4728   -6.2543 H   0  0  0  0  0  0  0  0  0  0  0  0
  -12.9435    5.2735    0.6042 H   0  0  0  0  0  0  0  0  0  0  0  0
  -13.0572    5.5621    4.8125 H   0  0  0  0  0  0  0  0  0  0  0  0
  -10.7723    6.3970    4.8095 H   0  0  0  0  0  0  0  0  0  0  0  0
   -8.9392    4.4486    1.5619 H   0  0  0  0  0  0  0  0  0  0  0  0
   -6.6718    4.0207    0.4877 H   0  0  0  0  0  0  0  0  0  0  0  0
   -8.7718    6.6382   -1.9654 H   0  0  0  0  0  0  0  0  0  0  0  0
  -12.9390    7.9046    0.4135 H   0  0  0  0  0  0  0  0  0  0  0  0
  -13.5014    9.2846   -1.6634 H   0  0  0  0  0  0  0  0  0  0  0  0
   -4.6898    7.0099   -5.8966 H   0  0  0  0  0  0  0  0  0  0  0  0
   -4.2386    5.4132   -3.9480 H   0  0  0  0  0  0  0  0  0  0  0  0
   -3.9577    6.2565   -0.8937 H   0  0  0  0  0  0  0  0  0  0  0  0
   -1.8512    5.0406   -0.9036 H   0  0  0  0  0  0  0  0  0  0  0  0
    1.4005    4.3799    3.2239 H   0  0  0  0  0  0  0  0  0  0  0  0
    4.2211    4.3442    2.4734 H   0  0  0  0  0  0  0  0  0  0  0  0
    5.4844    4.5861    0.4156 H   0  0  0  0  0  0  0  0  0  0  0  0
    2.0262    3.7431   -1.8095 H   0  0  0  0  0  0  0  0  0  0  0  0
    0.7480    3.7307    0.2502 H   0  0  0  0  0  0  0  0  0  0  0  0
  1  2  1  0  0  0  0
  1101  1  0  0  0  0
  1102  1  0  0  0  0
  1103  1  0  0  0  0
  2  3  1  0  0  0  0
  2104  1  0  0  0  0
  2105  1  0  0  0  0
  3  4  1  0  0  0  0
  3106  1  0  0  0  0
  3107  1  0  0  0  0
  4  5  1  0  0  0  0
  4100  2  0  0  0  0
  5  6  2  0  0  0  0
  5108  1  0  0  0  0
  6  7  1  0  0  0  0
  6 89  1  0  0  0  0
  7  8  1  0  0  0  0
  8  9  1  0  0  0  0
  8109  1  0  0  0  0
  8110  1  0  0  0  0
  9 10  2  0  0  0  0
  9 11  1  0  0  0  0
 11 12  1  0  0  0  0
 12 13  1  0  0  0  0
 12111  1  0  0  0  0
 12112  1  0  0  0  0
 13 14  1  0  0  0  0
 13113  1  0  0  0  0
 13114  1  0  0  0  0
 14 15  1  0  0  0  0
 15 16  1  0  0  0  0
 15115  1  0  0  0  0
 15116  1  0  0  0  0
 16 17  1  0  0  0  0
 16117  1  0  0  0  0
 16118  1  0  0  0  0
 17 18  1  0  0  0  0
 18 19  1  0  0  0  0
 18119  1  0  0  0  0
 18120  1  0  0  0  0
 19 20  1  0  0  0  0
 19121  1  0  0  0  0
 19122  1  0  0  0  0
 20 21  1  0  0  0  0
 21 22  1  0  0  0  0
 21123  1  0  0  0  0
 21124  1  0  0  0  0
 22 23  1  0  0  0  0
 22125  1  0  0  0  0
 22126  1  0  0  0  0
 23 24  1  0  0  0  0
 24 25  2  0  0  0  0
 24 26  1  0  0  0  0
 26 27  1  0  0  0  0
 26 88  2  0  0  0  0
 27 28  2  0  0  0  0
 27127  1  0  0  0  0
 28 29  1  0  0  0  0
 28128  1  0  0  0  0
 29 30  1  0  0  0  0
 29 87  2  0  0  0  0
 30 31  1  0  0  0  0
 30 81  2  0  0  0  0
 31 32  2  0  0  0  0
 31 86  1  0  0  0  0
 32 33  1  0  0  0  0
 33 34  2  0  0  0  0
 33 85  1  0  0  0  0
 34 35  1  0  0  0  0
 34 46  1  0  0  0  0
 35 36  1  0  0  0  0
 35 44  2  0  0  0  0
 36 37  2  0  0  0  0
 36129  1  0  0  0  0
 37 38  1  0  0  0  0
 37 42  1  0  0  0  0
 38 39  2  0  0  0  0
 38 40  2  0  0  0  0
 38 41  1  0  0  0  0
 42 43  2  0  0  0  0
 42130  1  0  0  0  0
 43 44  1  0  0  0  0
 43131  1  0  0  0  0
 44 45  1  0  0  0  0
 46 47  2  0  0  0  0
 46 50  1  0  0  0  0
 47 48  1  0  0  0  0
 47132  1  0  0  0  0
 48 49  2  0  0  0  0
 48133  1  0  0  0  0
 49 50  1  0  0  0  0
 49 51  1  0  0  0  0
 50134  1  0  0  0  0
 51 52  1  0  0  0  0
 51 63  2  0  0  0  0
 52 53  1  0  0  0  0
 52 61  2  0  0  0  0
 53 54  2  0  0  0  0
 53135  1  0  0  0  0
 54 55  1  0  0  0  0
 54 59  1  0  0  0  0
 55 56  2  0  0  0  0
 55 57  2  0  0  0  0
 55 58  1  0  0  0  0
 59 60  2  0  0  0  0
 59136  1  0  0  0  0
 60 61  1  0  0  0  0
 60137  1  0  0  0  0
 61 62  1  0  0  0  0
 63 64  1  0  0  0  0
 63 84  1  0  0  0  0
 64 65  2  0  0  0  0
 65 66  1  0  0  0  0
 65 83  1  0  0  0  0
 66 67  1  0  0  0  0
 66 78  2  0  0  0  0
 67 68  1  0  0  0  0
 67 76  2  0  0  0  0
 68 69  2  0  0  0  0
 68138  1  0  0  0  0
 69 70  1  0  0  0  0
 69 74  1  0  0  0  0
 70 71  2  0  0  0  0
 70 72  2  0  0  0  0
 70 73  1  0  0  0  0
 74 75  2  0  0  0  0
 74139  1  0  0  0  0
 75 76  1  0  0  0  0
 75140  1  0  0  0  0
 76 77  1  0  0  0  0
 78 79  1  0  0  0  0
 78 82  1  0  0  0  0
 79 80  2  0  0  0  0
 79141  1  0  0  0  0
 80 81  1  0  0  0  0
 80142  1  0  0  0  0
 81 82  1  0  0  0  0
 82143  1  0  0  0  0
 83 84  2  0  0  0  0
 83144  1  0  0  0  0
 84145  1  0  0  0  0
 85 86  2  0  0  0  0
 85146  1  0  0  0  0
 86147  1  0  0  0  0
 87 88  1  0  0  0  0
 87148  1  0  0  0  0
 88149  1  0  0  0  0
 89 90  2  0  0  0  0
 90 91  1  0  0  0  0
 90100  1  0  0  0  0
 91 92  1  0  0  0  0
 91150  1  0  0  0  0
 92 93  1  0  0  0  0
 92 99  2  0  0  0  0
 93 94  2  0  0  0  0
 93151  1  0  0  0  0
 94 95  1  0  0  0  0
 94152  1  0  0  0  0
 95 96  1  0  0  0  0
 95 98  2  0  0  0  0
 96 97  3  0  0  0  0
 98 99  1  0  0  0  0
 98153  1  0  0  0  0
 99154  1  0  0  0  0
M  CHG  3  41  -1  58  -1  73  -1
M  END
$$$$
