5_6_8268
 OpenBabel04152301373D

159170  0  0  1  0  0  0  0  0999 V2000
    1.1518    1.2825   -1.6399 O   0  0  0  0  0  0  0  0  0  0  0  0
    2.3373    1.0900   -1.3677 C   0  0  0  0  0  0  0  0  0  0  0  0
    2.8893    1.8267   -0.3725 O   0  0  0  0  0  0  0  0  0  0  0  0
    4.2557    1.8386    0.0611 C   0  0  0  0  0  0  0  0  0  0  0  0
    4.5587    0.8146    1.1546 C   0  0  0  0  0  0  0  0  0  0  0  0
    3.6744   -0.2987    1.2102 O   0  0  0  0  0  0  0  0  0  0  0  0
    2.3555   -0.0753    1.6939 C   0  0  0  0  0  0  0  0  0  0  0  0
    1.8582   -1.2934    2.4719 C   0  0  0  0  0  0  0  0  0  0  0  0
    2.5530   -1.5643    3.6865 O   0  0  0  0  0  0  0  0  0  0  0  0
    3.9777   -1.5682    3.6235 C   0  0  0  0  0  0  0  0  0  0  0  0
    4.6904   -2.4999    2.6105 C   0  0  0  0  0  0  0  0  0  0  0  0
    3.8123   -3.2812    1.8193 O   0  0  0  0  0  0  0  0  0  0  0  0
    3.7421   -4.6586    2.1736 C   0  0  0  0  0  0  0  0  0  0  0  0
    3.1695   -4.9552    3.5689 C   0  0  0  0  0  0  0  0  0  0  0  0
    3.8469   -4.3254    4.6805 O   0  0  0  0  0  0  0  0  0  0  0  0
    5.0923   -4.7437    5.0162 C   0  0  0  0  0  0  0  0  0  0  0  0
    5.7337   -5.6383    4.5175 O   0  0  0  0  0  0  0  0  0  0  0  0
    5.5911   -3.8072    6.0556 C   0  0  0  0  0  0  0  0  0  0  0  0
    5.1497   -3.9390    7.3687 C   0  0  0  0  0  0  0  0  0  0  0  0
    5.5005   -2.9687    8.3160 C   0  0  0  0  0  0  0  0  0  0  0  0
    6.1834   -1.7922    7.9445 C   0  0  0  0  0  0  0  0  0  0  0  0
    6.4333   -0.6670    8.9330 C   0  0  0  0  0  0  0  0  0  0  0  0
    5.3169    0.1608    9.4249 N   0  3  1  0  0  0  0  0  0  0  0  0
    5.0412    1.4181    8.7142 C   0  0  0  0  0  0  0  0  0  0  0  0
    3.8850    1.4254    7.6708 C   0  0  0  0  0  0  0  0  0  0  0  0
    2.7016    0.5868    7.9902 N   0  3  1  0  0  0  0  0  0  0  0  0
    1.8879    0.3936    6.7731 C   0  0  0  0  0  0  0  0  0  0  0  0
    0.7204   -0.5775    6.9800 C   0  0  0  0  0  0  0  0  0  0  0  0
    1.1780   -1.9024    7.5787 C   0  0  0  0  0  0  0  0  0  0  0  0
    1.9919   -1.6475    8.8407 C   0  0  0  0  0  0  0  0  0  0  0  0
    3.1613   -0.7154    8.5146 C   0  0  2  0  0  0  0  0  0  0  0  0
    4.0631   -0.5153    9.7569 C   0  0  0  0  0  0  0  0  0  0  0  0
    6.6631   -1.7186    6.6343 C   0  0  0  0  0  0  0  0  0  0  0  0
    7.3566   -0.6429    6.2340 F   0  0  0  0  0  0  0  0  0  0  0  0
    6.4202   -2.7352    5.7074 C   0  0  0  0  0  0  0  0  0  0  0  0
    3.0672    0.0506   -2.1550 C   0  0  0  0  0  0  0  0  0  0  0  0
    4.0927   -0.7620   -1.6706 C   0  0  0  0  0  0  0  0  0  0  0  0
    4.6602   -1.7660   -2.4383 C   0  0  0  0  0  0  0  0  0  0  0  0
    4.1769   -2.0106   -3.7154 C   0  0  0  0  0  0  0  0  0  0  0  0
    4.8783   -3.0009   -4.5433 C   0  0  0  0  0  0  0  0  0  0  0  0
    5.7768   -2.4900   -5.6219 C   0  0  0  0  0  0  0  0  0  0  0  0
    6.3888   -3.1414   -6.5685 N   0  0  0  0  0  0  0  0  0  0  0  0
    7.0781   -2.1784   -7.2946 C   0  0  0  0  0  0  0  0  0  0  0  0
    7.8678   -2.3657   -8.3775 C   0  0  0  0  0  0  0  0  0  0  0  0
    8.4279   -1.1277   -9.0287 C   0  0  0  0  0  0  0  0  0  0  0  0
    9.3477   -0.2936   -8.3662 C   0  0  0  0  0  0  0  0  0  0  0  0
    9.6916    0.9489   -8.9222 C   0  0  0  0  0  0  0  0  0  0  0  0
   10.6427    2.1215   -7.9149 S   0  0  0  0  0  0  0  0  0  0  0  0
    9.7147    2.3861   -6.8176 O   0  0  0  0  0  0  0  0  0  0  0  0
   11.8339    1.3539   -7.5718 O   0  0  0  0  0  0  0  0  0  0  0  0
   10.8661    3.2481   -8.8188 O   0  5  0  0  0  0  0  0  0  0  0  0
    9.2195    1.3353  -10.1789 C   0  0  0  0  0  0  0  0  0  0  0  0
    8.3545    0.4891  -10.8665 C   0  0  0  0  0  0  0  0  0  0  0  0
    7.9466   -0.7117  -10.2822 C   0  0  0  0  0  0  0  0  0  0  0  0
    7.0389   -1.4468  -10.9437 F   0  0  0  0  0  0  0  0  0  0  0  0
    8.0855   -3.6681   -8.9522 C   0  0  0  0  0  0  0  0  0  0  0  0
    8.7357   -4.0080  -10.1219 C   0  0  0  0  0  0  0  0  0  0  0  0
    8.6403   -5.3963  -10.2806 C   0  0  0  0  0  0  0  0  0  0  0  0
    8.0022   -5.9337   -9.1704 C   0  0  0  0  0  0  0  0  0  0  0  0
    7.6460   -4.8588   -8.3769 N   0  0  0  0  0  0  0  0  0  0  0  0
    7.7644   -7.3270   -8.8611 C   0  0  0  0  0  0  0  0  0  0  0  0
    8.3545   -8.3434   -9.7990 C   0  0  0  0  0  0  0  0  0  0  0  0
    7.5492   -9.1497  -10.6177 C   0  0  0  0  0  0  0  0  0  0  0  0
    8.1493  -10.0899  -11.4658 C   0  0  0  0  0  0  0  0  0  0  0  0
    7.0846  -11.2278  -12.3904 S   0  0  0  0  0  0  0  0  0  0  0  0
    6.4072  -11.9465  -11.3156 O   0  0  0  0  0  0  0  0  0  0  0  0
    6.2535  -10.3170  -13.1708 O   0  0  0  0  0  0  0  0  0  0  0  0
    8.0302  -12.0246  -13.1698 O   0  5  0  0  0  0  0  0  0  0  0  0
    9.5404  -10.1919  -11.5661 C   0  0  0  0  0  0  0  0  0  0  0  0
   10.3431   -9.3723  -10.7778 C   0  0  0  0  0  0  0  0  0  0  0  0
    9.7512   -8.4776   -9.8893 C   0  0  0  0  0  0  0  0  0  0  0  0
   10.5603   -7.7262   -9.1250 F   0  0  0  0  0  0  0  0  0  0  0  0
    7.1072   -7.8093   -7.7743 C   0  0  0  0  0  0  0  0  0  0  0  0
    6.5231   -7.1188   -6.7206 N   0  0  0  0  0  0  0  0  0  0  0  0
    6.0294   -8.0352   -5.9167 C   0  0  0  0  0  0  0  0  0  0  0  0
    5.2999   -7.8483   -4.6144 C   0  0  0  0  0  0  0  0  0  0  0  0
    4.8185   -8.9946   -3.7959 C   0  0  0  0  0  0  0  0  0  0  0  0
    5.7199   -9.8326   -3.1230 C   0  0  0  0  0  0  0  0  0  0  0  0
    5.2351  -10.8780   -2.3191 C   0  0  0  0  0  0  0  0  0  0  0  0
    6.4255  -11.9691   -1.4921 S   0  0  0  0  0  0  0  0  0  0  0  0
    7.0618  -12.6285   -2.6266 O   0  0  0  0  0  0  0  0  0  0  0  0
    7.2511  -11.0186   -0.7548 O   0  0  0  0  0  0  0  0  0  0  0  0
    5.5813  -12.8278   -0.6636 O   0  5  0  0  0  0  0  0  0  0  0  0
    3.8642  -11.0872   -2.1455 C   0  0  0  0  0  0  0  0  0  0  0  0
    2.9641  -10.2596   -2.8080 C   0  0  0  0  0  0  0  0  0  0  0  0
    3.4416   -9.2409   -3.6344 C   0  0  0  0  0  0  0  0  0  0  0  0
    2.5364   -8.4634   -4.2500 F   0  0  0  0  0  0  0  0  0  0  0  0
    5.0438   -6.5856   -4.2260 C   0  0  0  0  0  0  0  0  0  0  0  0
    4.2960   -6.1905   -3.0391 C   0  0  0  0  0  0  0  0  0  0  0  0
    4.1083   -4.8617   -3.0690 C   0  0  0  0  0  0  0  0  0  0  0  0
    4.8073   -4.3066   -4.2326 C   0  0  0  0  0  0  0  0  0  0  0  0
    5.3565   -5.3986   -4.8434 N   0  0  0  0  0  0  0  0  0  0  0  0
    6.2171   -9.4126   -6.3781 C   0  0  0  0  0  0  0  0  0  0  0  0
    6.8976   -9.2213   -7.5012 C   0  0  0  0  0  0  0  0  0  0  0  0
    6.7956   -0.8970   -6.6881 C   0  0  0  0  0  0  0  0  0  0  0  0
    6.0265   -1.0382   -5.6215 C   0  0  0  0  0  0  0  0  0  0  0  0
    3.1313   -1.2338   -4.2243 C   0  0  0  0  0  0  0  0  0  0  0  0
    2.5894   -0.2051   -3.4500 C   0  0  0  0  0  0  0  0  0  0  0  0
    4.4825    2.8138    0.4384 H   0  0  0  0  0  0  0  0  0  0  0  0
    4.8564    1.5806   -0.7860 H   0  0  0  0  0  0  0  0  0  0  0  0
    4.5165    1.3171    2.0983 H   0  0  0  0  0  0  0  0  0  0  0  0
    5.5235    0.4135    0.9237 H   0  0  0  0  0  0  0  0  0  0  0  0
    1.7023    0.1045    0.8657 H   0  0  0  0  0  0  0  0  0  0  0  0
    2.3648    0.7725    2.3466 H   0  0  0  0  0  0  0  0  0  0  0  0
    1.9519   -2.1510    1.8389 H   0  0  0  0  0  0  0  0  0  0  0  0
    0.8484   -1.0751    2.7505 H   0  0  0  0  0  0  0  0  0  0  0  0
    4.3323   -1.8362    4.5968 H   0  0  0  0  0  0  0  0  0  0  0  0
    4.2183   -0.5853    3.2759 H   0  0  0  0  0  0  0  0  0  0  0  0
    5.3288   -3.1626    3.1565 H   0  0  0  0  0  0  0  0  0  0  0  0
    5.2279   -1.8659    1.9367 H   0  0  0  0  0  0  0  0  0  0  0  0
    4.7328   -5.0606    2.1317 H   0  0  0  0  0  0  0  0  0  0  0  0
    3.0647   -5.1067    1.4770 H   0  0  0  0  0  0  0  0  0  0  0  0
    3.2076   -6.0138    3.7199 H   0  0  0  0  0  0  0  0  0  0  0  0
    2.1801   -4.5479    3.5666 H   0  0  0  0  0  0  0  0  0  0  0  0
    4.5679   -4.7461    7.6427 H   0  0  0  0  0  0  0  0  0  0  0  0
    5.2539   -3.1180    9.3069 H   0  0  0  0  0  0  0  0  0  0  0  0
    7.1278    0.0008    8.4676 H   0  0  0  0  0  0  0  0  0  0  0  0
    6.7521   -1.1867    9.8123 H   0  0  0  0  0  0  0  0  0  0  0  0
    5.7496    0.4146   10.3130 H   0  0  0  0  0  0  0  0  0  0  0  0
    5.9370    1.6965    8.1995 H   0  0  0  0  0  0  0  0  0  0  0  0
    4.7180    2.0937    9.4784 H   0  0  0  0  0  0  0  0  0  0  0  0
    4.2849    1.0827    6.7394 H   0  0  0  0  0  0  0  0  0  0  0  0
    3.5235    2.4324    7.6543 H   0  0  0  0  0  0  0  0  0  0  0  0
    2.1274    1.0484    8.6956 H   0  0  0  0  0  0  0  0  0  0  0  0
    2.5185    0.0085    5.9992 H   0  0  0  0  0  0  0  0  0  0  0  0
    1.4708    1.3441    6.5132 H   0  0  0  0  0  0  0  0  0  0  0  0
    0.2575   -0.7675    6.0342 H   0  0  0  0  0  0  0  0  0  0  0  0
    0.0327   -0.1260    7.6642 H   0  0  0  0  0  0  0  0  0  0  0  0
    1.7823   -2.4238    6.8661 H   0  0  0  0  0  0  0  0  0  0  0  0
    0.3201   -2.4922    7.8259 H   0  0  0  0  0  0  0  0  0  0  0  0
    2.3696   -2.5760    9.2150 H   0  0  0  0  0  0  0  0  0  0  0  0
    1.3683   -1.1915    9.5810 H   0  0  0  0  0  0  0  0  0  0  0  0
    3.7363   -1.1844    7.7437 H   0  0  0  0  0  0  0  0  0  0  0  0
    3.5335    0.0740   10.4761 H   0  0  0  0  0  0  0  0  0  0  0  0
    4.3040   -1.4818   10.1477 H   0  0  0  0  0  0  0  0  0  0  0  0
    6.8503   -2.6957    4.7701 H   0  0  0  0  0  0  0  0  0  0  0  0
    4.4393   -0.6105   -0.7104 H   0  0  0  0  0  0  0  0  0  0  0  0
    5.4387   -2.3292   -2.0619 H   0  0  0  0  0  0  0  0  0  0  0  0
    9.7686   -0.5947   -7.4733 H   0  0  0  0  0  0  0  0  0  0  0  0
    9.5082    2.2360  -10.5918 H   0  0  0  0  0  0  0  0  0  0  0  0
    8.0154    0.7485  -11.8060 H   0  0  0  0  0  0  0  0  0  0  0  0
    9.2085   -3.3545  -10.7656 H   0  0  0  0  0  0  0  0  0  0  0  0
    8.9877   -5.9327  -11.0909 H   0  0  0  0  0  0  0  0  0  0  0  0
    7.1527   -4.9252   -7.5275 H   0  0  0  0  0  0  0  0  0  0  0  0
    6.5222   -9.0509  -10.5954 H   0  0  0  0  0  0  0  0  0  0  0  0
    9.9676  -10.8682  -12.2181 H   0  0  0  0  0  0  0  0  0  0  0  0
   11.3710   -9.4272  -10.8512 H   0  0  0  0  0  0  0  0  0  0  0  0
    6.7364   -9.6817   -3.2181 H   0  0  0  0  0  0  0  0  0  0  0  0
    3.5244  -11.8457   -1.5338 H   0  0  0  0  0  0  0  0  0  0  0  0
    1.9483  -10.3979   -2.6893 H   0  0  0  0  0  0  0  0  0  0  0  0
    3.9652   -6.8275   -2.2976 H   0  0  0  0  0  0  0  0  0  0  0  0
    3.5605   -4.3184   -2.3837 H   0  0  0  0  0  0  0  0  0  0  0  0
    5.9213   -5.3405   -5.6477 H   0  0  0  0  0  0  0  0  0  0  0  0
    5.9039  -10.2957   -5.9455 H   0  0  0  0  0  0  0  0  0  0  0  0
    7.2373   -9.9838   -8.1080 H   0  0  0  0  0  0  0  0  0  0  0  0
    7.1471    0.0071   -7.0403 H   0  0  0  0  0  0  0  0  0  0  0  0
    5.6896   -0.3196   -4.9618 H   0  0  0  0  0  0  0  0  0  0  0  0
    2.7610   -1.4200   -5.1694 H   0  0  0  0  0  0  0  0  0  0  0  0
    1.8275    0.3747   -3.8352 H   0  0  0  0  0  0  0  0  0  0  0  0
  1  2  2  0  0  0  0
  2  3  1  0  0  0  0
  2 36  1  0  0  0  0
  3  4  1  0  0  0  0
  4  5  1  0  0  0  0
  4 99  1  0  0  0  0
  4100  1  0  0  0  0
  5  6  1  0  0  0  0
  5101  1  0  0  0  0
  5102  1  0  0  0  0
  6  7  1  0  0  0  0
  7  8  1  0  0  0  0
  7103  1  0  0  0  0
  7104  1  0  0  0  0
  8  9  1  0  0  0  0
  8105  1  0  0  0  0
  8106  1  0  0  0  0
  9 10  1  0  0  0  0
 10 11  1  0  0  0  0
 10107  1  0  0  0  0
 10108  1  0  0  0  0
 11 12  1  0  0  0  0
 11109  1  0  0  0  0
 11110  1  0  0  0  0
 12 13  1  0  0  0  0
 13 14  1  0  0  0  0
 13111  1  0  0  0  0
 13112  1  0  0  0  0
 14 15  1  0  0  0  0
 14113  1  0  0  0  0
 14114  1  0  0  0  0
 15 16  1  0  0  0  0
 16 17  2  0  0  0  0
 16 18  1  0  0  0  0
 18 19  1  0  0  0  0
 18 35  2  0  0  0  0
 19 20  2  0  0  0  0
 19115  1  0  0  0  0
 20 21  1  0  0  0  0
 20116  1  0  0  0  0
 21 22  1  0  0  0  0
 21 33  2  0  0  0  0
 22 23  1  0  0  0  0
 22117  1  0  0  0  0
 22118  1  0  0  0  0
 23 24  1  0  0  0  0
 23 32  1  0  0  0  0
 23119  1  1  0  0  0
 24 25  1  0  0  0  0
 24120  1  0  0  0  0
 24121  1  0  0  0  0
 25 26  1  0  0  0  0
 25122  1  0  0  0  0
 25123  1  0  0  0  0
 26 27  1  0  0  0  0
 26 31  1  0  0  0  0
 26124  1  1  0  0  0
 27 28  1  0  0  0  0
 27125  1  0  0  0  0
 27126  1  0  0  0  0
 28 29  1  0  0  0  0
 28127  1  0  0  0  0
 28128  1  0  0  0  0
 29 30  1  0  0  0  0
 29129  1  0  0  0  0
 29130  1  0  0  0  0
 30 31  1  0  0  0  0
 30131  1  0  0  0  0
 30132  1  0  0  0  0
 31 32  1  0  0  0  0
 31133  1  6  0  0  0
 32134  1  0  0  0  0
 32135  1  0  0  0  0
 33 34  1  0  0  0  0
 33 35  1  0  0  0  0
 35136  1  0  0  0  0
 36 37  1  0  0  0  0
 36 98  2  0  0  0  0
 37 38  2  0  0  0  0
 37137  1  0  0  0  0
 38 39  1  0  0  0  0
 38138  1  0  0  0  0
 39 40  1  0  0  0  0
 39 97  2  0  0  0  0
 40 41  1  0  0  0  0
 40 91  2  0  0  0  0
 41 42  2  0  0  0  0
 41 96  1  0  0  0  0
 42 43  1  0  0  0  0
 43 44  2  0  0  0  0
 43 95  1  0  0  0  0
 44 45  1  0  0  0  0
 44 56  1  0  0  0  0
 45 46  1  0  0  0  0
 45 54  2  0  0  0  0
 46 47  2  0  0  0  0
 46139  1  0  0  0  0
 47 48  1  0  0  0  0
 47 52  1  0  0  0  0
 48 49  2  0  0  0  0
 48 50  2  0  0  0  0
 48 51  1  0  0  0  0
 52 53  2  0  0  0  0
 52140  1  0  0  0  0
 53 54  1  0  0  0  0
 53141  1  0  0  0  0
 54 55  1  0  0  0  0
 56 57  2  0  0  0  0
 56 60  1  0  0  0  0
 57 58  1  0  0  0  0
 57142  1  0  0  0  0
 58 59  2  0  0  0  0
 58143  1  0  0  0  0
 59 60  1  0  0  0  0
 59 61  1  0  0  0  0
 60144  1  0  0  0  0
 61 62  1  0  0  0  0
 61 73  2  0  0  0  0
 62 63  1  0  0  0  0
 62 71  2  0  0  0  0
 63 64  2  0  0  0  0
 63145  1  0  0  0  0
 64 65  1  0  0  0  0
 64 69  1  0  0  0  0
 65 66  2  0  0  0  0
 65 67  2  0  0  0  0
 65 68  1  0  0  0  0
 69 70  2  0  0  0  0
 69146  1  0  0  0  0
 70 71  1  0  0  0  0
 70147  1  0  0  0  0
 71 72  1  0  0  0  0
 73 74  1  0  0  0  0
 73 94  1  0  0  0  0
 74 75  2  0  0  0  0
 75 76  1  0  0  0  0
 75 93  1  0  0  0  0
 76 77  1  0  0  0  0
 76 88  2  0  0  0  0
 77 78  1  0  0  0  0
 77 86  2  0  0  0  0
 78 79  2  0  0  0  0
 78148  1  0  0  0  0
 79 80  1  0  0  0  0
 79 84  1  0  0  0  0
 80 81  2  0  0  0  0
 80 82  2  0  0  0  0
 80 83  1  0  0  0  0
 84 85  2  0  0  0  0
 84149  1  0  0  0  0
 85 86  1  0  0  0  0
 85150  1  0  0  0  0
 86 87  1  0  0  0  0
 88 89  1  0  0  0  0
 88 92  1  0  0  0  0
 89 90  2  0  0  0  0
 89151  1  0  0  0  0
 90 91  1  0  0  0  0
 90152  1  0  0  0  0
 91 92  1  0  0  0  0
 92153  1  0  0  0  0
 93 94  2  0  0  0  0
 93154  1  0  0  0  0
 94155  1  0  0  0  0
 95 96  2  0  0  0  0
 95156  1  0  0  0  0
 96157  1  0  0  0  0
 97 98  1  0  0  0  0
 97158  1  0  0  0  0
 98159  1  0  0  0  0
M  CHG  5  23   1  26   1  51  -1  68  -1  83  -1
M  END
$$$$
