5_6_2702
 OpenBabel04152301373D

144154  0  0  1  0  0  0  0  0999 V2000
   -7.2253    0.0184   13.4335 O   0  0  0  0  0  0  0  0  0  0  0  0
   -7.4664    0.0312   12.2269 C   0  0  0  0  0  0  0  0  0  0  0  0
   -6.8881    0.9925   11.4627 O   0  0  0  0  0  0  0  0  0  0  0  0
   -7.1678    1.2828   10.0860 C   0  0  0  0  0  0  0  0  0  0  0  0
   -6.1772    0.6250    9.1229 C   0  0  0  0  0  0  0  0  0  0  0  0
   -5.5851   -0.5774    9.5979 O   0  0  0  0  0  0  0  0  0  0  0  0
   -4.5262   -0.4463   10.5422 C   0  0  0  0  0  0  0  0  0  0  0  0
   -3.5431   -1.6083   10.3806 C   0  0  0  0  0  0  0  0  0  0  0  0
   -2.7875   -1.5978    9.1680 O   0  0  0  0  0  0  0  0  0  0  0  0
   -3.5100   -1.3937    7.9573 C   0  0  0  0  0  0  0  0  0  0  0  0
   -4.6276   -2.3882    7.5692 C   0  0  0  0  0  0  0  0  0  0  0  0
   -4.9051   -3.3712    8.5565 O   0  0  0  0  0  0  0  0  0  0  0  0
   -4.5120   -4.6998    8.2242 C   0  0  0  0  0  0  0  0  0  0  0  0
   -2.9970   -4.9400    8.1930 C   0  0  0  0  0  0  0  0  0  0  0  0
   -2.2664   -4.0937    7.2883 O   0  0  0  0  0  0  0  0  0  0  0  0
   -2.4005   -4.2888    5.9530 C   0  0  0  0  0  0  0  0  0  0  0  0
   -3.0080   -5.1790    5.3914 O   0  0  0  0  0  0  0  0  0  0  0  0
   -1.7260   -3.1210    5.3190 C   0  0  0  0  0  0  0  0  0  0  0  0
   -0.3664   -2.9484    5.5409 C   0  0  0  0  0  0  0  0  0  0  0  0
    0.1949   -1.7098    5.2548 C   0  0  0  0  0  0  0  0  0  0  0  0
    1.9104   -1.3121    5.5371 S   0  0  0  0  0  0  0  0  0  0  0  0
    2.3737   -2.3300    6.9891 C   0  0  0  0  0  0  0  0  0  0  0  0
    1.9175   -1.8939    8.3832 C   0  0  1  0  0  0  0  0  0  0  0  0
    1.4821   -0.4613    8.6231 C   0  0  0  0  0  0  0  0  0  0  0  0
    0.7209   -0.5590    9.9379 C   0  0  0  0  0  0  0  0  0  0  0  0
    0.3974   -1.9418   10.1450 O   0  0  0  0  0  0  0  0  0  0  0  0
    0.7258   -2.6488    8.9424 C   0  0  0  0  0  0  0  0  0  0  0  0
   -0.6181   -0.7140    4.7061 C   0  0  0  0  0  0  0  0  0  0  0  0
   -1.9546   -0.9932    4.4705 C   0  0  0  0  0  0  0  0  0  0  0  0
   -2.5317   -2.1748    4.7667 N   0  0  0  0  0  0  0  0  0  0  0  0
   -8.3932   -1.0100   11.6869 C   0  0  0  0  0  0  0  0  0  0  0  0
   -8.2999   -1.5779   10.4158 C   0  0  0  0  0  0  0  0  0  0  0  0
   -9.1578   -2.5832    9.9951 C   0  0  0  0  0  0  0  0  0  0  0  0
  -10.1027   -3.0981   10.8724 C   0  0  0  0  0  0  0  0  0  0  0  0
  -11.0445   -4.1141   10.3689 C   0  0  0  0  0  0  0  0  0  0  0  0
  -12.4590   -3.6934   10.1208 C   0  0  0  0  0  0  0  0  0  0  0  0
  -13.4978   -4.4196    9.8202 N   0  0  0  0  0  0  0  0  0  0  0  0
  -14.5643   -3.5317    9.7446 C   0  0  0  0  0  0  0  0  0  0  0  0
  -15.8627   -3.8181    9.4953 C   0  0  0  0  0  0  0  0  0  0  0  0
  -16.8575   -2.6948    9.6232 C   0  0  0  0  0  0  0  0  0  0  0  0
  -16.8851   -1.6041    8.7372 C   0  0  0  0  0  0  0  0  0  0  0  0
  -17.7605   -0.5322    8.9783 C   0  0  0  0  0  0  0  0  0  0  0  0
  -17.6150    0.9620    7.9589 S   0  0  0  0  0  0  0  0  0  0  0  0
  -16.2645    1.4129    8.2868 O   0  0  0  0  0  0  0  0  0  0  0  0
  -17.8044    0.4454    6.6084 O   0  0  0  0  0  0  0  0  0  0  0  0
  -18.6889    1.8216    8.4530 O   0  5  0  0  0  0  0  0  0  0  0  0
  -18.6718   -0.5633   10.0376 C   0  0  0  0  0  0  0  0  0  0  0  0
  -18.6763   -1.6583   10.8955 C   0  0  0  0  0  0  0  0  0  0  0  0
  -17.7622   -2.6941   10.7005 C   0  0  0  0  0  0  0  0  0  0  0  0
  -17.7553   -3.6928   11.5975 F   0  0  0  0  0  0  0  0  0  0  0  0
  -16.3224   -5.1560    9.2291 C   0  0  0  0  0  0  0  0  0  0  0  0
  -17.6087   -5.5976    8.9880 C   0  0  0  0  0  0  0  0  0  0  0  0
  -17.5697   -6.9912    8.8709 C   0  0  0  0  0  0  0  0  0  0  0  0
  -16.2506   -7.4129    8.9646 C   0  0  0  0  0  0  0  0  0  0  0  0
  -15.4965   -6.2749    9.1826 N   0  0  0  0  0  0  0  0  0  0  0  0
  -15.7319   -8.7571    8.8703 C   0  0  0  0  0  0  0  0  0  0  0  0
  -16.7274   -9.8675    8.6759 C   0  0  0  0  0  0  0  0  0  0  0  0
  -16.9782  -10.8057    9.6900 C   0  0  0  0  0  0  0  0  0  0  0  0
  -17.8981  -11.8376    9.4666 C   0  0  0  0  0  0  0  0  0  0  0  0
  -18.0835  -13.1227   10.7305 S   0  0  0  0  0  0  0  0  0  0  0  0
  -16.7486  -13.7112   10.7612 O   0  0  0  0  0  0  0  0  0  0  0  0
  -18.4677  -12.3523   11.9088 O   0  0  0  0  0  0  0  0  0  0  0  0
  -19.1307  -13.9866   10.1884 O   0  5  0  0  0  0  0  0  0  0  0  0
  -18.6275  -11.9106    8.2761 C   0  0  0  0  0  0  0  0  0  0  0  0
  -18.4037  -10.9643    7.2793 C   0  0  0  0  0  0  0  0  0  0  0  0
  -17.4456   -9.9712    7.4728 C   0  0  0  0  0  0  0  0  0  0  0  0
  -17.2388   -9.0958    6.4757 F   0  0  0  0  0  0  0  0  0  0  0  0
  -14.4234   -9.1170    8.9170 C   0  0  0  0  0  0  0  0  0  0  0  0
  -13.2898   -8.3294    9.0816 N   0  0  0  0  0  0  0  0  0  0  0  0
  -12.2714   -9.1628    9.1030 C   0  0  0  0  0  0  0  0  0  0  0  0
  -10.8004   -8.8550    9.2646 C   0  0  0  0  0  0  0  0  0  0  0  0
   -9.7780   -9.9468    9.3103 C   0  0  0  0  0  0  0  0  0  0  0  0
   -9.6051  -10.8374    8.2385 C   0  0  0  0  0  0  0  0  0  0  0  0
   -8.7404  -11.9386    8.3702 C   0  0  0  0  0  0  0  0  0  0  0  0
   -8.7315  -13.2009    7.0654 S   0  0  0  0  0  0  0  0  0  0  0  0
  -10.1486  -13.5299    6.9601 O   0  0  0  0  0  0  0  0  0  0  0  0
   -8.1568  -12.4697    5.9416 O   0  0  0  0  0  0  0  0  0  0  0  0
   -7.8860  -14.2568    7.6190 O   0  5  0  0  0  0  0  0  0  0  0  0
   -7.9760  -12.1301    9.5228 C   0  0  0  0  0  0  0  0  0  0  0  0
   -8.1024  -11.2281   10.5718 C   0  0  0  0  0  0  0  0  0  0  0  0
   -9.0131  -10.1742   10.4721 C   0  0  0  0  0  0  0  0  0  0  0  0
   -9.1425   -9.3731   11.5420 F   0  0  0  0  0  0  0  0  0  0  0  0
  -10.4647   -7.5679    9.4859 C   0  0  0  0  0  0  0  0  0  0  0  0
   -9.1206   -7.0665    9.7438 C   0  0  0  0  0  0  0  0  0  0  0  0
   -9.2025   -5.7841   10.1337 C   0  0  0  0  0  0  0  0  0  0  0  0
  -10.6008   -5.3469   10.0577 C   0  0  0  0  0  0  0  0  0  0  0  0
  -11.2676   -6.4549    9.6064 N   0  0  0  0  0  0  0  0  0  0  0  0
  -12.6459  -10.5738    8.9607 C   0  0  0  0  0  0  0  0  0  0  0  0
  -13.9592  -10.4868    8.8097 C   0  0  0  0  0  0  0  0  0  0  0  0
  -14.0452   -2.2104   10.0137 C   0  0  0  0  0  0  0  0  0  0  0  0
  -12.7380   -2.2495   10.2193 C   0  0  0  0  0  0  0  0  0  0  0  0
  -10.1958   -2.5769   12.1691 C   0  0  0  0  0  0  0  0  0  0  0  0
   -9.3546   -1.5314   12.5662 C   0  0  0  0  0  0  0  0  0  0  0  0
   -7.1268    2.3428    9.9459 H   0  0  0  0  0  0  0  0  0  0  0  0
   -8.1378    0.8881    9.8664 H   0  0  0  0  0  0  0  0  0  0  0  0
   -5.3929    1.3252    8.9241 H   0  0  0  0  0  0  0  0  0  0  0  0
   -6.7392    0.3579    8.2524 H   0  0  0  0  0  0  0  0  0  0  0  0
   -4.9300   -0.4574   11.5330 H   0  0  0  0  0  0  0  0  0  0  0  0
   -4.0134    0.4775   10.3731 H   0  0  0  0  0  0  0  0  0  0  0  0
   -4.1000   -2.5213   10.4164 H   0  0  0  0  0  0  0  0  0  0  0  0
   -2.8332   -1.5112   11.1753 H   0  0  0  0  0  0  0  0  0  0  0  0
   -2.7948   -1.4011    7.1615 H   0  0  0  0  0  0  0  0  0  0  0  0
   -4.0334   -0.4756    8.1251 H   0  0  0  0  0  0  0  0  0  0  0  0
   -4.3329   -2.8895    6.6710 H   0  0  0  0  0  0  0  0  0  0  0  0
   -5.5218   -1.8127    7.4505 H   0  0  0  0  0  0  0  0  0  0  0  0
   -4.9043   -4.9294    7.2556 H   0  0  0  0  0  0  0  0  0  0  0  0
   -4.8981   -5.3282    8.9994 H   0  0  0  0  0  0  0  0  0  0  0  0
   -2.8279   -5.9569    7.9062 H   0  0  0  0  0  0  0  0  0  0  0  0
   -2.6373   -4.7102    9.1742 H   0  0  0  0  0  0  0  0  0  0  0  0
    0.2122   -3.7197    5.9087 H   0  0  0  0  0  0  0  0  0  0  0  0
    3.4425   -2.3762    7.0102 H   0  0  0  0  0  0  0  0  0  0  0  0
    1.8554   -3.2523    6.8289 H   0  0  0  0  0  0  0  0  0  0  0  0
    2.8595   -2.0913    8.8507 H   0  0  0  0  0  0  0  0  0  0  0  0
    0.8476   -0.1136    7.8348 H   0  0  0  0  0  0  0  0  0  0  0  0
    2.2975    0.2308    8.6548 H   0  0  0  0  0  0  0  0  0  0  0  0
   -0.1758    0.0225    9.8854 H   0  0  0  0  0  0  0  0  0  0  0  0
    1.3136   -0.1846   10.7462 H   0  0  0  0  0  0  0  0  0  0  0  0
    0.9862   -3.6641    9.1577 H   0  0  0  0  0  0  0  0  0  0  0  0
   -0.0928   -2.6918    8.2546 H   0  0  0  0  0  0  0  0  0  0  0  0
   -0.2290    0.2147    4.4800 H   0  0  0  0  0  0  0  0  0  0  0  0
   -2.5397   -0.2570    4.0454 H   0  0  0  0  0  0  0  0  0  0  0  0
   -7.5703   -1.2396    9.7690 H   0  0  0  0  0  0  0  0  0  0  0  0
   -9.0939   -2.9478    9.0318 H   0  0  0  0  0  0  0  0  0  0  0  0
  -16.2646   -1.5907    7.9127 H   0  0  0  0  0  0  0  0  0  0  0  0
  -19.3328    0.2161   10.1814 H   0  0  0  0  0  0  0  0  0  0  0  0
  -19.3532   -1.7043   11.6732 H   0  0  0  0  0  0  0  0  0  0  0  0
  -18.4496   -5.0046    8.9083 H   0  0  0  0  0  0  0  0  0  0  0  0
  -18.3881   -7.6054    8.7368 H   0  0  0  0  0  0  0  0  0  0  0  0
  -14.5179   -6.2585    9.2894 H   0  0  0  0  0  0  0  0  0  0  0  0
  -16.4873  -10.7352   10.5950 H   0  0  0  0  0  0  0  0  0  0  0  0
  -19.3250  -12.6585    8.1374 H   0  0  0  0  0  0  0  0  0  0  0  0
  -18.9450  -10.9984    6.4013 H   0  0  0  0  0  0  0  0  0  0  0  0
  -10.1130  -10.6837    7.3534 H   0  0  0  0  0  0  0  0  0  0  0  0
   -7.3271  -12.9294    9.5944 H   0  0  0  0  0  0  0  0  0  0  0  0
   -7.5259  -11.3364   11.4209 H   0  0  0  0  0  0  0  0  0  0  0  0
   -8.2483   -7.6086    9.6432 H   0  0  0  0  0  0  0  0  0  0  0  0
   -8.4085   -5.1994   10.4382 H   0  0  0  0  0  0  0  0  0  0  0  0
  -12.2278   -6.4559    9.3891 H   0  0  0  0  0  0  0  0  0  0  0  0
  -12.0451  -11.4127    8.9745 H   0  0  0  0  0  0  0  0  0  0  0  0
  -14.5768  -11.2953    8.6368 H   0  0  0  0  0  0  0  0  0  0  0  0
  -14.6167   -1.3516   10.0418 H   0  0  0  0  0  0  0  0  0  0  0  0
  -12.0846   -1.4717   10.4012 H   0  0  0  0  0  0  0  0  0  0  0  0
  -10.8853   -2.9642   12.8322 H   0  0  0  0  0  0  0  0  0  0  0  0
   -9.4423   -1.1393   13.5168 H   0  0  0  0  0  0  0  0  0  0  0  0
  1  2  2  0  0  0  0
  2  3  1  0  0  0  0
  2 31  1  0  0  0  0
  3  4  1  0  0  0  0
  4  5  1  0  0  0  0
  4 94  1  0  0  0  0
  4 95  1  0  0  0  0
  5  6  1  0  0  0  0
  5 96  1  0  0  0  0
  5 97  1  0  0  0  0
  6  7  1  0  0  0  0
  7  8  1  0  0  0  0
  7 98  1  0  0  0  0
  7 99  1  0  0  0  0
  8  9  1  0  0  0  0
  8100  1  0  0  0  0
  8101  1  0  0  0  0
  9 10  1  0  0  0  0
 10 11  1  0  0  0  0
 10102  1  0  0  0  0
 10103  1  0  0  0  0
 11 12  1  0  0  0  0
 11104  1  0  0  0  0
 11105  1  0  0  0  0
 12 13  1  0  0  0  0
 13 14  1  0  0  0  0
 13106  1  0  0  0  0
 13107  1  0  0  0  0
 14 15  1  0  0  0  0
 14108  1  0  0  0  0
 14109  1  0  0  0  0
 15 16  1  0  0  0  0
 16 17  2  0  0  0  0
 16 18  1  0  0  0  0
 18 19  1  0  0  0  0
 18 30  2  0  0  0  0
 19 20  2  0  0  0  0
 19110  1  0  0  0  0
 20 21  1  0  0  0  0
 20 28  1  0  0  0  0
 21 22  1  0  0  0  0
 22111  1  0  0  0  0
 22112  1  0  0  0  0
 23 24  1  0  0  0  0
 23 27  1  0  0  0  0
 23 22  1  0  0  0  0
 23113  1  1  0  0  0
 24 25  1  0  0  0  0
 24114  1  0  0  0  0
 24115  1  0  0  0  0
 25 26  1  0  0  0  0
 25116  1  0  0  0  0
 25117  1  0  0  0  0
 26 27  1  0  0  0  0
 27118  1  0  0  0  0
 27119  1  0  0  0  0
 28 29  2  0  0  0  0
 28120  1  0  0  0  0
 29 30  1  0  0  0  0
 29121  1  0  0  0  0
 31 32  1  0  0  0  0
 31 93  2  0  0  0  0
 32 33  2  0  0  0  0
 32122  1  0  0  0  0
 33 34  1  0  0  0  0
 33123  1  0  0  0  0
 34 35  1  0  0  0  0
 34 92  2  0  0  0  0
 35 36  1  0  0  0  0
 35 86  2  0  0  0  0
 36 37  2  0  0  0  0
 36 91  1  0  0  0  0
 37 38  1  0  0  0  0
 38 39  2  0  0  0  0
 38 90  1  0  0  0  0
 39 40  1  0  0  0  0
 39 51  1  0  0  0  0
 40 41  1  0  0  0  0
 40 49  2  0  0  0  0
 41 42  2  0  0  0  0
 41124  1  0  0  0  0
 42 43  1  0  0  0  0
 42 47  1  0  0  0  0
 43 44  2  0  0  0  0
 43 45  2  0  0  0  0
 43 46  1  0  0  0  0
 47 48  2  0  0  0  0
 47125  1  0  0  0  0
 48 49  1  0  0  0  0
 48126  1  0  0  0  0
 49 50  1  0  0  0  0
 51 52  2  0  0  0  0
 51 55  1  0  0  0  0
 52 53  1  0  0  0  0
 52127  1  0  0  0  0
 53 54  2  0  0  0  0
 53128  1  0  0  0  0
 54 55  1  0  0  0  0
 54 56  1  0  0  0  0
 55129  1  0  0  0  0
 56 57  1  0  0  0  0
 56 68  2  0  0  0  0
 57 58  1  0  0  0  0
 57 66  2  0  0  0  0
 58 59  2  0  0  0  0
 58130  1  0  0  0  0
 59 60  1  0  0  0  0
 59 64  1  0  0  0  0
 60 61  2  0  0  0  0
 60 62  2  0  0  0  0
 60 63  1  0  0  0  0
 64 65  2  0  0  0  0
 64131  1  0  0  0  0
 65 66  1  0  0  0  0
 65132  1  0  0  0  0
 66 67  1  0  0  0  0
 68 69  1  0  0  0  0
 68 89  1  0  0  0  0
 69 70  2  0  0  0  0
 70 71  1  0  0  0  0
 70 88  1  0  0  0  0
 71 72  1  0  0  0  0
 71 83  2  0  0  0  0
 72 73  1  0  0  0  0
 72 81  2  0  0  0  0
 73 74  2  0  0  0  0
 73133  1  0  0  0  0
 74 75  1  0  0  0  0
 74 79  1  0  0  0  0
 75 76  2  0  0  0  0
 75 77  2  0  0  0  0
 75 78  1  0  0  0  0
 79 80  2  0  0  0  0
 79134  1  0  0  0  0
 80 81  1  0  0  0  0
 80135  1  0  0  0  0
 81 82  1  0  0  0  0
 83 84  1  0  0  0  0
 83 87  1  0  0  0  0
 84 85  2  0  0  0  0
 84136  1  0  0  0  0
 85 86  1  0  0  0  0
 85137  1  0  0  0  0
 86 87  1  0  0  0  0
 87138  1  0  0  0  0
 88 89  2  0  0  0  0
 88139  1  0  0  0  0
 89140  1  0  0  0  0
 90 91  2  0  0  0  0
 90141  1  0  0  0  0
 91142  1  0  0  0  0
 92 93  1  0  0  0  0
 92143  1  0  0  0  0
 93144  1  0  0  0  0
M  CHG  3  46  -1  63  -1  78  -1
M  END
$$$$
