5_6_6782
 OpenBabel04152301373D

141150  0  0  0  0  0  0  0  0999 V2000
    0.6211    0.2469   -0.8214 O   0  0  0  0  0  0  0  0  0  0  0  0
    1.7869    0.1928   -0.4466 C   0  0  0  0  0  0  0  0  0  0  0  0
    2.7095    1.3367   -0.7311 C   0  0  0  0  0  0  0  0  0  0  0  0
    4.0319    1.4230   -0.5027 C   0  0  0  0  0  0  0  0  0  0  0  0
    4.8471    2.6154   -0.8627 C   0  0  0  0  0  0  0  0  0  0  0  0
    4.6247    3.8990   -0.3273 C   0  0  0  0  0  0  0  0  0  0  0  0
    3.3901    4.2098    0.8470 Cl  0  0  0  0  0  0  0  0  0  0  0  0
    5.4293    4.9914   -0.6949 C   0  0  0  0  0  0  0  0  0  0  0  0
    6.4894    4.8258   -1.5818 C   0  0  0  0  0  0  0  0  0  0  0  0
    6.7467    3.5647   -2.1037 C   0  0  0  0  0  0  0  0  0  0  0  0
    5.9325    2.4786   -1.7519 C   0  0  0  0  0  0  0  0  0  0  0  0
    6.3155    0.9623   -2.4722 Cl  0  0  0  0  0  0  0  0  0  0  0  0
    2.2774   -0.8279    0.3147 N   0  0  0  0  0  0  0  0  0  0  0  0
    1.4304   -1.9003    0.8290 C   0  0  0  0  0  0  0  0  0  0  0  0
    1.1884   -3.2287    0.0950 C   0  0  0  0  0  0  0  0  0  0  0  0
    0.4408   -4.0839    0.5654 O   0  0  0  0  0  0  0  0  0  0  0  0
    1.9668   -3.4163   -0.9970 O   0  0  0  0  0  0  0  0  0  0  0  0
    1.9210   -4.7208   -1.6062 C   0  0  0  0  0  0  0  0  0  0  0  0
    3.2649   -5.4691   -1.6837 C   0  0  0  0  0  0  0  0  0  0  0  0
    4.1452   -5.5650   -0.5682 O   0  0  0  0  0  0  0  0  0  0  0  0
    4.3541   -4.4481    0.2804 C   0  0  0  0  0  0  0  0  0  0  0  0
    4.7874   -3.0920   -0.2989 C   0  0  0  0  0  0  0  0  0  0  0  0
    4.4439   -2.8805   -1.6494 O   0  0  0  0  0  0  0  0  0  0  0  0
    5.4319   -3.1413   -2.6406 C   0  0  0  0  0  0  0  0  0  0  0  0
    6.5094   -4.2127   -2.3645 C   0  0  0  0  0  0  0  0  0  0  0  0
    7.1378   -4.0978   -1.0936 O   0  0  0  0  0  0  0  0  0  0  0  0
    8.3854   -3.4227   -1.0195 C   0  0  0  0  0  0  0  0  0  0  0  0
    8.4197   -1.9387   -1.4085 C   0  0  0  0  0  0  0  0  0  0  0  0
    7.9921   -1.6211   -2.7407 O   0  0  0  0  0  0  0  0  0  0  0  0
    8.6615   -2.1274   -3.7942 C   0  0  0  0  0  0  0  0  0  0  0  0
    9.6590   -2.8270   -3.7521 O   0  0  0  0  0  0  0  0  0  0  0  0
    7.8521   -1.8399   -5.0029 C   0  0  0  0  0  0  0  0  0  0  0  0
    7.3026   -2.9013   -5.7327 C   0  0  0  0  0  0  0  0  0  0  0  0
    6.5329   -2.6468   -6.8733 C   0  0  0  0  0  0  0  0  0  0  0  0
    6.3264   -1.3299   -7.3058 C   0  0  0  0  0  0  0  0  0  0  0  0
    5.7592   -1.0578   -8.6548 C   0  0  0  0  0  0  0  0  0  0  0  0
    6.7103   -0.6782   -9.7604 C   0  0  0  0  0  0  0  0  0  0  0  0
    6.4583   -0.2986  -10.9859 N   0  0  0  0  0  0  0  0  0  0  0  0
    7.6979   -0.0497  -11.5669 C   0  0  0  0  0  0  0  0  0  0  0  0
    7.9794    0.3290  -12.8378 C   0  0  0  0  0  0  0  0  0  0  0  0
    9.4286    0.5668  -13.1886 C   0  0  0  0  0  0  0  0  0  0  0  0
   10.3822   -0.4651  -13.1476 C   0  0  0  0  0  0  0  0  0  0  0  0
   11.7344   -0.1779  -13.3874 C   0  0  0  0  0  0  0  0  0  0  0  0
   12.9676   -1.4598  -13.0329 S   0  0  0  0  0  0  0  0  0  0  0  0
   12.7097   -1.7345  -11.6211 O   0  0  0  0  0  0  0  0  0  0  0  0
   12.6010   -2.5175  -13.9670 O   0  0  0  0  0  0  0  0  0  0  0  0
   14.2404   -0.7962  -13.3076 O   0  5  0  0  0  0  0  0  0  0  0  0
   12.1458    1.0988  -13.7767 C   0  0  0  0  0  0  0  0  0  0  0  0
   11.2001    2.1150  -13.8703 C   0  0  0  0  0  0  0  0  0  0  0  0
    9.8677    1.8541  -13.5469 C   0  0  0  0  0  0  0  0  0  0  0  0
    9.0090    2.8856  -13.5770 F   0  0  0  0  0  0  0  0  0  0  0  0
    6.9749    0.5636  -13.8449 C   0  0  0  0  0  0  0  0  0  0  0  0
    7.1528    0.9287  -15.1679 C   0  0  0  0  0  0  0  0  0  0  0  0
    5.8939    1.1462  -15.7351 C   0  0  0  0  0  0  0  0  0  0  0  0
    4.9265    0.8228  -14.7972 C   0  0  0  0  0  0  0  0  0  0  0  0
    5.6044    0.4737  -13.6394 N   0  0  0  0  0  0  0  0  0  0  0  0
    3.4899    0.8305  -14.9481 C   0  0  0  0  0  0  0  0  0  0  0  0
    2.9225    1.2240  -16.2924 C   0  0  0  0  0  0  0  0  0  0  0  0
    2.1460    2.3832  -16.4627 C   0  0  0  0  0  0  0  0  0  0  0  0
    1.6242    2.6959  -17.7280 C   0  0  0  0  0  0  0  0  0  0  0  0
    0.4810    4.0961  -17.8801 S   0  0  0  0  0  0  0  0  0  0  0  0
   -0.5972    3.7062  -16.9775 O   0  0  0  0  0  0  0  0  0  0  0  0
    1.3026    5.2204  -17.4438 O   0  0  0  0  0  0  0  0  0  0  0  0
    0.1304    4.1007  -19.2994 O   0  5  0  0  0  0  0  0  0  0  0  0
    1.9231    1.9157  -18.8481 C   0  0  0  0  0  0  0  0  0  0  0  0
    2.7175    0.7841  -18.6941 C   0  0  0  0  0  0  0  0  0  0  0  0
    3.1852    0.4336  -17.4269 C   0  0  0  0  0  0  0  0  0  0  0  0
    3.9180   -0.6870  -17.3244 F   0  0  0  0  0  0  0  0  0  0  0  0
    2.6135    0.4614  -13.9788 C   0  0  0  0  0  0  0  0  0  0  0  0
    2.8680    0.0132  -12.6831 N   0  0  0  0  0  0  0  0  0  0  0  0
    1.6917   -0.2100  -12.1420 C   0  0  0  0  0  0  0  0  0  0  0  0
    1.3606   -0.7385  -10.7626 C   0  0  0  0  0  0  0  0  0  0  0  0
   -0.0642   -0.8944  -10.3399 C   0  0  0  0  0  0  0  0  0  0  0  0
   -0.9294   -1.7781  -11.0054 C   0  0  0  0  0  0  0  0  0  0  0  0
   -2.2916   -1.8161  -10.6648 C   0  0  0  0  0  0  0  0  0  0  0  0
   -3.4142   -2.8150  -11.6822 S   0  0  0  0  0  0  0  0  0  0  0  0
   -3.2147   -2.2302  -13.0034 O   0  0  0  0  0  0  0  0  0  0  0  0
   -2.8831   -4.1601  -11.4889 O   0  0  0  0  0  0  0  0  0  0  0  0
   -4.7247   -2.5720  -11.0832 O   0  5  0  0  0  0  0  0  0  0  0  0
   -2.8003   -1.0430   -9.6192 C   0  0  0  0  0  0  0  0  0  0  0  0
   -1.9430   -0.1928   -8.9286 C   0  0  0  0  0  0  0  0  0  0  0  0
   -0.6018   -0.1047   -9.3067 C   0  0  0  0  0  0  0  0  0  0  0  0
    0.1742    0.7691   -8.6458 F   0  0  0  0  0  0  0  0  0  0  0  0
    2.3670   -1.0164   -9.9058 C   0  0  0  0  0  0  0  0  0  0  0  0
    2.2145   -1.5056   -8.5356 C   0  0  0  0  0  0  0  0  0  0  0  0
    3.4206   -1.5537   -7.9416 C   0  0  0  0  0  0  0  0  0  0  0  0
    4.4397   -1.1467   -8.9065 C   0  0  0  0  0  0  0  0  0  0  0  0
    3.7294   -0.8859  -10.0545 N   0  0  0  0  0  0  0  0  0  0  0  0
    0.5594    0.1048  -13.0256 C   0  0  0  0  0  0  0  0  0  0  0  0
    1.1755    0.4653  -14.1420 C   0  0  0  0  0  0  0  0  0  0  0  0
    8.6955   -0.2825  -10.5449 C   0  0  0  0  0  0  0  0  0  0  0  0
    8.1428   -0.7258   -9.4273 C   0  0  0  0  0  0  0  0  0  0  0  0
    6.8408   -0.2685   -6.5395 C   0  0  0  0  0  0  0  0  0  0  0  0
    7.6091   -0.5220   -5.3979 C   0  0  0  0  0  0  0  0  0  0  0  0
    2.2734    2.1685   -1.1588 H   0  0  0  0  0  0  0  0  0  0  0  0
    4.5053    0.6225   -0.0554 H   0  0  0  0  0  0  0  0  0  0  0  0
    5.2321    5.9256   -0.3033 H   0  0  0  0  0  0  0  0  0  0  0  0
    7.0774    5.6309   -1.8485 H   0  0  0  0  0  0  0  0  0  0  0  0
    7.5383    3.4268   -2.7513 H   0  0  0  0  0  0  0  0  0  0  0  0
    3.2390   -0.8418    0.5252 H   0  0  0  0  0  0  0  0  0  0  0  0
    0.4629   -1.4649    0.9681 H   0  0  0  0  0  0  0  0  0  0  0  0
    2.0071   -2.2320    1.6670 H   0  0  0  0  0  0  0  0  0  0  0  0
    1.5511   -4.6051   -2.6036 H   0  0  0  0  0  0  0  0  0  0  0  0
    1.2922   -5.3149   -0.9765 H   0  0  0  0  0  0  0  0  0  0  0  0
    3.8238   -4.9989   -2.4657 H   0  0  0  0  0  0  0  0  0  0  0  0
    2.9481   -6.4839   -1.8052 H   0  0  0  0  0  0  0  0  0  0  0  0
    5.1082   -4.7351    0.9831 H   0  0  0  0  0  0  0  0  0  0  0  0
    3.3719   -4.2451    0.6531 H   0  0  0  0  0  0  0  0  0  0  0  0
    5.8514   -3.0196   -0.2124 H   0  0  0  0  0  0  0  0  0  0  0  0
    4.2621   -2.3474    0.2619 H   0  0  0  0  0  0  0  0  0  0  0  0
    5.9455   -2.2200   -2.8205 H   0  0  0  0  0  0  0  0  0  0  0  0
    4.8727   -3.5465   -3.4579 H   0  0  0  0  0  0  0  0  0  0  0  0
    7.2633   -4.1319   -3.1195 H   0  0  0  0  0  0  0  0  0  0  0  0
    6.0099   -5.1589   -2.3746 H   0  0  0  0  0  0  0  0  0  0  0  0
    9.0659   -3.9377   -1.6650 H   0  0  0  0  0  0  0  0  0  0  0  0
    8.6371   -3.4347    0.0204 H   0  0  0  0  0  0  0  0  0  0  0  0
    9.4275   -1.5962   -1.2991 H   0  0  0  0  0  0  0  0  0  0  0  0
    7.7170   -1.4575   -0.7608 H   0  0  0  0  0  0  0  0  0  0  0  0
    7.4658   -3.8739   -5.4285 H   0  0  0  0  0  0  0  0  0  0  0  0
    6.1159   -3.4316   -7.3978 H   0  0  0  0  0  0  0  0  0  0  0  0
   10.0881   -1.4326  -12.9414 H   0  0  0  0  0  0  0  0  0  0  0  0
   13.1376    1.2858  -13.9920 H   0  0  0  0  0  0  0  0  0  0  0  0
   11.4829    3.0586  -14.1779 H   0  0  0  0  0  0  0  0  0  0  0  0
    8.0590    1.0240  -15.6524 H   0  0  0  0  0  0  0  0  0  0  0  0
    5.7150    1.4899  -16.6916 H   0  0  0  0  0  0  0  0  0  0  0  0
    5.1769    0.2019  -12.7952 H   0  0  0  0  0  0  0  0  0  0  0  0
    1.9598    3.0033  -15.6591 H   0  0  0  0  0  0  0  0  0  0  0  0
    1.5590    2.1757  -19.7781 H   0  0  0  0  0  0  0  0  0  0  0  0
    2.9600    0.2060  -19.5139 H   0  0  0  0  0  0  0  0  0  0  0  0
   -0.5645   -2.3993  -11.7443 H   0  0  0  0  0  0  0  0  0  0  0  0
   -3.7981   -1.1016   -9.3625 H   0  0  0  0  0  0  0  0  0  0  0  0
   -2.2969    0.3707   -8.1398 H   0  0  0  0  0  0  0  0  0  0  0  0
    1.3209   -1.7723   -8.0935 H   0  0  0  0  0  0  0  0  0  0  0  0
    3.5973   -1.8326   -6.9638 H   0  0  0  0  0  0  0  0  0  0  0  0
    4.1556   -0.6296  -10.9041 H   0  0  0  0  0  0  0  0  0  0  0  0
   -0.4523    0.0573  -12.8277 H   0  0  0  0  0  0  0  0  0  0  0  0
    0.6909    0.7171  -15.0176 H   0  0  0  0  0  0  0  0  0  0  0  0
    9.7073   -0.1234  -10.6713 H   0  0  0  0  0  0  0  0  0  0  0  0
    8.5976   -1.0264   -8.5510 H   0  0  0  0  0  0  0  0  0  0  0  0
    6.6499    0.7056   -6.8217 H   0  0  0  0  0  0  0  0  0  0  0  0
    7.9951    0.2622   -4.8493 H   0  0  0  0  0  0  0  0  0  0  0  0
  1  2  2  0  0  0  0
  2  3  1  0  0  0  0
  2 13  1  0  0  0  0
  3  4  2  0  0  0  0
  3 95  1  0  0  0  0
  4  5  1  0  0  0  0
  4 96  1  0  0  0  0
  5  6  1  0  0  0  0
  5 11  2  0  0  0  0
  6  7  1  0  0  0  0
  6  8  2  0  0  0  0
  8  9  1  0  0  0  0
  8 97  1  0  0  0  0
  9 10  2  0  0  0  0
  9 98  1  0  0  0  0
 10 11  1  0  0  0  0
 10 99  1  0  0  0  0
 11 12  1  0  0  0  0
 13 14  1  0  0  0  0
 13100  1  0  0  0  0
 14 15  1  0  0  0  0
 14101  1  0  0  0  0
 14102  1  0  0  0  0
 15 16  2  0  0  0  0
 15 17  1  0  0  0  0
 17 18  1  0  0  0  0
 18 19  1  0  0  0  0
 18103  1  0  0  0  0
 18104  1  0  0  0  0
 19 20  1  0  0  0  0
 19105  1  0  0  0  0
 19106  1  0  0  0  0
 20 21  1  0  0  0  0
 21 22  1  0  0  0  0
 21107  1  0  0  0  0
 21108  1  0  0  0  0
 22 23  1  0  0  0  0
 22109  1  0  0  0  0
 22110  1  0  0  0  0
 23 24  1  0  0  0  0
 24 25  1  0  0  0  0
 24111  1  0  0  0  0
 24112  1  0  0  0  0
 25 26  1  0  0  0  0
 25113  1  0  0  0  0
 25114  1  0  0  0  0
 26 27  1  0  0  0  0
 27 28  1  0  0  0  0
 27115  1  0  0  0  0
 27116  1  0  0  0  0
 28 29  1  0  0  0  0
 28117  1  0  0  0  0
 28118  1  0  0  0  0
 29 30  1  0  0  0  0
 30 31  2  0  0  0  0
 30 32  1  0  0  0  0
 32 33  1  0  0  0  0
 32 94  2  0  0  0  0
 33 34  2  0  0  0  0
 33119  1  0  0  0  0
 34 35  1  0  0  0  0
 34120  1  0  0  0  0
 35 36  1  0  0  0  0
 35 93  2  0  0  0  0
 36 37  1  0  0  0  0
 36 87  2  0  0  0  0
 37 38  2  0  0  0  0
 37 92  1  0  0  0  0
 38 39  1  0  0  0  0
 39 40  2  0  0  0  0
 39 91  1  0  0  0  0
 40 41  1  0  0  0  0
 40 52  1  0  0  0  0
 41 42  1  0  0  0  0
 41 50  2  0  0  0  0
 42 43  2  0  0  0  0
 42121  1  0  0  0  0
 43 44  1  0  0  0  0
 43 48  1  0  0  0  0
 44 45  2  0  0  0  0
 44 46  2  0  0  0  0
 44 47  1  0  0  0  0
 48 49  2  0  0  0  0
 48122  1  0  0  0  0
 49 50  1  0  0  0  0
 49123  1  0  0  0  0
 50 51  1  0  0  0  0
 52 53  2  0  0  0  0
 52 56  1  0  0  0  0
 53 54  1  0  0  0  0
 53124  1  0  0  0  0
 54 55  2  0  0  0  0
 54125  1  0  0  0  0
 55 56  1  0  0  0  0
 55 57  1  0  0  0  0
 56126  1  0  0  0  0
 57 58  1  0  0  0  0
 57 69  2  0  0  0  0
 58 59  1  0  0  0  0
 58 67  2  0  0  0  0
 59 60  2  0  0  0  0
 59127  1  0  0  0  0
 60 61  1  0  0  0  0
 60 65  1  0  0  0  0
 61 62  2  0  0  0  0
 61 63  2  0  0  0  0
 61 64  1  0  0  0  0
 65 66  2  0  0  0  0
 65128  1  0  0  0  0
 66 67  1  0  0  0  0
 66129  1  0  0  0  0
 67 68  1  0  0  0  0
 69 70  1  0  0  0  0
 69 90  1  0  0  0  0
 70 71  2  0  0  0  0
 71 72  1  0  0  0  0
 71 89  1  0  0  0  0
 72 73  1  0  0  0  0
 72 84  2  0  0  0  0
 73 74  1  0  0  0  0
 73 82  2  0  0  0  0
 74 75  2  0  0  0  0
 74130  1  0  0  0  0
 75 76  1  0  0  0  0
 75 80  1  0  0  0  0
 76 77  2  0  0  0  0
 76 78  2  0  0  0  0
 76 79  1  0  0  0  0
 80 81  2  0  0  0  0
 80131  1  0  0  0  0
 81 82  1  0  0  0  0
 81132  1  0  0  0  0
 82 83  1  0  0  0  0
 84 85  1  0  0  0  0
 84 88  1  0  0  0  0
 85 86  2  0  0  0  0
 85133  1  0  0  0  0
 86 87  1  0  0  0  0
 86134  1  0  0  0  0
 87 88  1  0  0  0  0
 88135  1  0  0  0  0
 89 90  2  0  0  0  0
 89136  1  0  0  0  0
 90137  1  0  0  0  0
 91 92  2  0  0  0  0
 91138  1  0  0  0  0
 92139  1  0  0  0  0
 93 94  1  0  0  0  0
 93140  1  0  0  0  0
 94141  1  0  0  0  0
M  CHG  3  47  -1  64  -1  79  -1
M  END
$$$$
