6_0_7339
 OpenBabel04152301373D

143152  0  0  0  0  0  0  0  0999 V2000
    1.1255    0.0435    0.0264 C   0  0  0  0  0  0  0  0  0  0  0  0
    0.6396    0.4875   -1.3672 C   0  0  0  0  0  0  0  0  0  0  0  0
    1.2604   -0.3684   -2.4969 C   0  0  0  0  0  0  0  0  0  0  0  0
   -0.9062    0.3508   -1.5426 C   0  0  0  0  0  0  0  0  0  0  0  0
   -1.6143    1.2716   -1.9674 O   0  0  0  0  0  0  0  0  0  0  0  0
   -1.5696   -0.8144   -1.3073 N   0  0  0  0  0  0  0  0  0  0  0  0
   -1.1207   -2.1360   -0.9150 C   0  0  0  0  0  0  0  0  0  0  0  0
   -1.6782   -2.5226    0.4511 C   0  0  0  0  0  0  0  0  0  0  0  0
   -3.1921   -2.7640    0.4534 C   0  0  0  0  0  0  0  0  0  0  0  0
   -3.6855   -3.7824   -0.5808 C   0  0  0  0  0  0  0  0  0  0  0  0
   -2.9681   -5.1344   -0.5503 C   0  0  0  0  0  0  0  0  0  0  0  0
   -3.0350   -5.8530    0.7915 C   0  0  0  0  0  0  0  0  0  0  0  0
   -4.4028   -6.1724    1.1666 N   0  0  0  0  0  0  0  0  0  0  0  0
   -4.9417   -7.3849    1.5187 C   0  0  0  0  0  0  0  0  0  0  0  0
   -6.1572   -7.5163    1.6027 O   0  0  0  0  0  0  0  0  0  0  0  0
   -4.0460   -8.5323    1.7789 C   0  0  0  0  0  0  0  0  0  0  0  0
   -4.3648   -9.7761    1.2305 C   0  0  0  0  0  0  0  0  0  0  0  0
   -3.4990  -10.8549    1.4198 C   0  0  0  0  0  0  0  0  0  0  0  0
   -2.2917  -10.6849    2.1184 C   0  0  0  0  0  0  0  0  0  0  0  0
   -1.3237  -11.8022    2.2610 C   0  0  0  0  0  0  0  0  0  0  0  0
   -0.9706  -12.3341    3.6237 C   0  0  0  0  0  0  0  0  0  0  0  0
   -0.1198  -13.2737    3.9455 N   0  0  0  0  0  0  0  0  0  0  0  0
   -0.1263  -13.3343    5.3338 C   0  0  0  0  0  0  0  0  0  0  0  0
    0.5442  -14.1818    6.1502 C   0  0  0  0  0  0  0  0  0  0  0  0
    0.3197  -14.0507    7.6350 C   0  0  0  0  0  0  0  0  0  0  0  0
   -0.9224  -14.4230    8.1897 C   0  0  0  0  0  0  0  0  0  0  0  0
   -1.1444  -14.3315    9.5631 C   0  0  0  0  0  0  0  0  0  0  0  0
   -0.1103  -13.9191   10.3986 C   0  0  0  0  0  0  0  0  0  0  0  0
    1.1412  -13.5760    9.8610 C   0  0  0  0  0  0  0  0  0  0  0  0
    2.4329  -13.1379   11.0297 S   0  0  0  0  0  0  0  0  0  0  0  0
    1.9601  -11.8436   11.5194 O   0  0  0  0  0  0  0  0  0  0  0  0
    2.3473  -14.2264   12.0035 O   0  0  0  0  0  0  0  0  0  0  0  0
    3.6717  -13.1006   10.2656 O   0  5  0  0  0  0  0  0  0  0  0  0
    1.3539  -13.6183    8.4879 C   0  0  0  0  0  0  0  0  0  0  0  0
    2.5214  -13.2499    7.9418 F   0  0  0  0  0  0  0  0  0  0  0  0
    1.4245  -15.2195    5.6847 C   0  0  0  0  0  0  0  0  0  0  0  0
    2.0823  -16.1850    6.4260 C   0  0  0  0  0  0  0  0  0  0  0  0
    2.8653  -16.9476    5.5535 C   0  0  0  0  0  0  0  0  0  0  0  0
    2.6633  -16.4834    4.2638 C   0  0  0  0  0  0  0  0  0  0  0  0
    1.7820  -15.4202    4.3605 N   0  0  0  0  0  0  0  0  0  0  0  0
    3.2408  -16.9697    3.0368 C   0  0  0  0  0  0  0  0  0  0  0  0
    4.1822  -18.1431    3.1248 C   0  0  0  0  0  0  0  0  0  0  0  0
    5.5642  -17.9561    2.9248 C   0  0  0  0  0  0  0  0  0  0  0  0
    6.4481  -19.0288    3.0384 C   0  0  0  0  0  0  0  0  0  0  0  0
    5.9651  -20.2820    3.4082 C   0  0  0  0  0  0  0  0  0  0  0  0
    4.5935  -20.4719    3.6413 C   0  0  0  0  0  0  0  0  0  0  0  0
    4.0764  -22.0947    4.2119 S   0  0  0  0  0  0  0  0  0  0  0  0
    4.2433  -22.9018    3.0044 O   0  0  0  0  0  0  0  0  0  0  0  0
    5.0468  -22.3732    5.2711 O   0  0  0  0  0  0  0  0  0  0  0  0
    2.7037  -21.9407    4.6742 O   0  5  0  0  0  0  0  0  0  0  0  0
    3.7011  -19.4199    3.4773 C   0  0  0  0  0  0  0  0  0  0  0  0
    2.3807  -19.5813    3.6466 F   0  0  0  0  0  0  0  0  0  0  0  0
    3.0051  -16.4424    1.8102 C   0  0  0  0  0  0  0  0  0  0  0  0
    2.1728  -15.3867    1.4559 N   0  0  0  0  0  0  0  0  0  0  0  0
    2.3117  -15.2382    0.1609 C   0  0  0  0  0  0  0  0  0  0  0  0
    1.6027  -14.2874   -0.7646 C   0  0  0  0  0  0  0  0  0  0  0  0
    1.8788  -14.2963   -2.2293 C   0  0  0  0  0  0  0  0  0  0  0  0
    1.4980  -15.4111   -3.0013 C   0  0  0  0  0  0  0  0  0  0  0  0
    1.7579  -15.4494   -4.3717 C   0  0  0  0  0  0  0  0  0  0  0  0
    2.3480  -14.3510   -4.9912 C   0  0  0  0  0  0  0  0  0  0  0  0
    2.6974  -13.2196   -4.2378 C   0  0  0  0  0  0  0  0  0  0  0  0
    3.3274  -11.7992   -5.1386 S   0  0  0  0  0  0  0  0  0  0  0  0
    4.6470  -12.2685   -5.5526 O   0  0  0  0  0  0  0  0  0  0  0  0
    2.3500  -11.6714   -6.2202 O   0  0  0  0  0  0  0  0  0  0  0  0
    3.3186  -10.6943   -4.1893 O   0  5  0  0  0  0  0  0  0  0  0  0
    2.4943  -13.1998   -2.8632 C   0  0  0  0  0  0  0  0  0  0  0  0
    2.8566  -12.1523   -2.1094 F   0  0  0  0  0  0  0  0  0  0  0  0
    0.6713  -13.4549   -0.2597 C   0  0  0  0  0  0  0  0  0  0  0  0
   -0.1125  -12.4981   -1.0342 C   0  0  0  0  0  0  0  0  0  0  0  0
   -0.9007  -11.8005   -0.2012 C   0  0  0  0  0  0  0  0  0  0  0  0
   -0.7033  -12.2860    1.1665 C   0  0  0  0  0  0  0  0  0  0  0  0
    0.2377  -13.2763    1.0335 N   0  0  0  0  0  0  0  0  0  0  0  0
    3.2796  -16.1614   -0.4488 C   0  0  0  0  0  0  0  0  0  0  0  0
    3.6284  -16.9095    0.5890 C   0  0  0  0  0  0  0  0  0  0  0  0
   -1.0388  -12.3117    5.7962 C   0  0  0  0  0  0  0  0  0  0  0  0
   -1.6406  -11.7130    4.7786 C   0  0  0  0  0  0  0  0  0  0  0  0
   -1.9956   -9.4331    2.6778 C   0  0  0  0  0  0  0  0  0  0  0  0
   -2.8948   -8.3782    2.5570 C   0  0  0  0  0  0  0  0  0  0  0  0
    1.1162    1.9646   -1.4718 C   0  0  0  0  0  0  0  0  0  0  0  0
    2.3266    2.3119   -2.0974 C   0  0  0  0  0  0  0  0  0  0  0  0
    2.7140    3.6468   -2.2289 C   0  0  0  0  0  0  0  0  0  0  0  0
    1.9043    4.6651   -1.7239 C   0  0  0  0  0  0  0  0  0  0  0  0
    2.2462    6.0711   -2.0659 C   0  0  0  0  0  0  0  0  0  0  0  0
    3.3996    6.3528   -2.3893 O   0  0  0  0  0  0  0  0  0  0  0  0
    1.1489    7.1204   -2.1022 C   0  0  0  0  0  0  0  0  0  0  0  0
    0.2993    7.0577   -3.3766 C   0  0  0  0  0  0  0  0  0  0  0  0
   -0.8612    6.0635   -3.3766 C   0  0  0  0  0  0  0  0  0  0  0  0
   -2.0505    6.4323   -2.1044 Cl  0  0  0  0  0  0  0  0  0  0  0  0
    0.7718    4.3340   -0.9827 C   0  0  0  0  0  0  0  0  0  0  0  0
    0.3827    2.9989   -0.8626 C   0  0  0  0  0  0  0  0  0  0  0  0
    0.8419   -0.9743    0.1955 H   0  0  0  0  0  0  0  0  0  0  0  0
    0.6811    0.6665    0.7743 H   0  0  0  0  0  0  0  0  0  0  0  0
    2.1908    0.1300    0.0770 H   0  0  0  0  0  0  0  0  0  0  0  0
    0.9203   -1.3789   -2.4067 H   0  0  0  0  0  0  0  0  0  0  0  0
    2.3272   -0.3428   -2.4186 H   0  0  0  0  0  0  0  0  0  0  0  0
    0.9630    0.0246   -3.4466 H   0  0  0  0  0  0  0  0  0  0  0  0
   -2.5444   -0.7464   -1.4268 H   0  0  0  0  0  0  0  0  0  0  0  0
   -0.0516   -2.1431   -0.8708 H   0  0  0  0  0  0  0  0  0  0  0  0
   -1.4721   -2.8425   -1.6377 H   0  0  0  0  0  0  0  0  0  0  0  0
   -1.4610   -1.7334    1.1402 H   0  0  0  0  0  0  0  0  0  0  0  0
   -1.2140   -3.4460    0.7282 H   0  0  0  0  0  0  0  0  0  0  0  0
   -3.6777   -1.8307    0.2585 H   0  0  0  0  0  0  0  0  0  0  0  0
   -3.4291   -3.1728    1.4134 H   0  0  0  0  0  0  0  0  0  0  0  0
   -3.5528   -3.3581   -1.5541 H   0  0  0  0  0  0  0  0  0  0  0  0
   -4.7089   -3.9813   -0.3401 H   0  0  0  0  0  0  0  0  0  0  0  0
   -1.9384   -4.9723   -0.7920 H   0  0  0  0  0  0  0  0  0  0  0  0
   -3.4692   -5.7617   -1.2576 H   0  0  0  0  0  0  0  0  0  0  0  0
   -2.6081   -5.2227    1.5434 H   0  0  0  0  0  0  0  0  0  0  0  0
   -2.4917   -6.7707    0.7042 H   0  0  0  0  0  0  0  0  0  0  0  0
   -5.0299   -5.4135    1.1683 H   0  0  0  0  0  0  0  0  0  0  0  0
   -5.2348   -9.8972    0.6887 H   0  0  0  0  0  0  0  0  0  0  0  0
   -3.7474  -11.7834    1.0441 H   0  0  0  0  0  0  0  0  0  0  0  0
   -1.6748  -14.7667    7.5726 H   0  0  0  0  0  0  0  0  0  0  0  0
   -2.0684  -14.5677    9.9573 H   0  0  0  0  0  0  0  0  0  0  0  0
   -0.2638  -13.8652   11.4177 H   0  0  0  0  0  0  0  0  0  0  0  0
    2.0080  -16.3192    7.4465 H   0  0  0  0  0  0  0  0  0  0  0  0
    3.4881  -17.7246    5.8244 H   0  0  0  0  0  0  0  0  0  0  0  0
    1.4570  -14.8853    3.6006 H   0  0  0  0  0  0  0  0  0  0  0  0
    5.9254  -17.0177    2.6924 H   0  0  0  0  0  0  0  0  0  0  0  0
    7.4538  -18.8950    2.8497 H   0  0  0  0  0  0  0  0  0  0  0  0
    6.6182  -21.0743    3.5113 H   0  0  0  0  0  0  0  0  0  0  0  0
    1.0221  -16.2073   -2.5490 H   0  0  0  0  0  0  0  0  0  0  0  0
    1.5141  -16.2871   -4.9229 H   0  0  0  0  0  0  0  0  0  0  0  0
    2.5290  -14.3688   -6.0071 H   0  0  0  0  0  0  0  0  0  0  0  0
   -0.0679  -12.3772   -2.0581 H   0  0  0  0  0  0  0  0  0  0  0  0
   -1.5434  -11.0428   -0.4800 H   0  0  0  0  0  0  0  0  0  0  0  0
    0.5708  -13.8084    1.7919 H   0  0  0  0  0  0  0  0  0  0  0  0
    3.6028  -16.2136   -1.4275 H   0  0  0  0  0  0  0  0  0  0  0  0
    4.2632  -17.7213    0.5336 H   0  0  0  0  0  0  0  0  0  0  0  0
   -1.2001  -12.0788    6.7886 H   0  0  0  0  0  0  0  0  0  0  0  0
   -2.3847  -10.9980    4.7920 H   0  0  0  0  0  0  0  0  0  0  0  0
   -1.1059   -9.2938    3.1818 H   0  0  0  0  0  0  0  0  0  0  0  0
   -2.7125   -7.4848    3.0403 H   0  0  0  0  0  0  0  0  0  0  0  0
    2.9391    1.5674   -2.4656 H   0  0  0  0  0  0  0  0  0  0  0  0
    3.6014    3.8811   -2.7008 H   0  0  0  0  0  0  0  0  0  0  0  0
    1.6010    8.0883   -2.0416 H   0  0  0  0  0  0  0  0  0  0  0  0
    0.4977    6.9300   -1.2748 H   0  0  0  0  0  0  0  0  0  0  0  0
    0.9483    6.7992   -4.1871 H   0  0  0  0  0  0  0  0  0  0  0  0
   -0.1556    8.0226   -3.4603 H   0  0  0  0  0  0  0  0  0  0  0  0
   -0.4738    5.0795   -3.2134 H   0  0  0  0  0  0  0  0  0  0  0  0
   -1.3559    6.1310   -4.3230 H   0  0  0  0  0  0  0  0  0  0  0  0
    0.2209    5.0756   -0.5227 H   0  0  0  0  0  0  0  0  0  0  0  0
   -0.4607    2.7657   -0.3155 H   0  0  0  0  0  0  0  0  0  0  0  0
  1  2  1  0  0  0  0
  1 91  1  0  0  0  0
  1 92  1  0  0  0  0
  1 93  1  0  0  0  0
  2  3  1  0  0  0  0
  2  4  1  0  0  0  0
  2 79  1  0  0  0  0
  3 94  1  0  0  0  0
  3 95  1  0  0  0  0
  3 96  1  0  0  0  0
  4  5  2  0  0  0  0
  4  6  1  0  0  0  0
  6  7  1  0  0  0  0
  6 97  1  0  0  0  0
  7  8  1  0  0  0  0
  7 98  1  0  0  0  0
  7 99  1  0  0  0  0
  8  9  1  0  0  0  0
  8100  1  0  0  0  0
  8101  1  0  0  0  0
  9 10  1  0  0  0  0
  9102  1  0  0  0  0
  9103  1  0  0  0  0
 10 11  1  0  0  0  0
 10104  1  0  0  0  0
 10105  1  0  0  0  0
 11 12  1  0  0  0  0
 11106  1  0  0  0  0
 11107  1  0  0  0  0
 12 13  1  0  0  0  0
 12108  1  0  0  0  0
 12109  1  0  0  0  0
 13 14  1  0  0  0  0
 13110  1  0  0  0  0
 14 15  2  0  0  0  0
 14 16  1  0  0  0  0
 16 17  1  0  0  0  0
 16 78  2  0  0  0  0
 17 18  2  0  0  0  0
 17111  1  0  0  0  0
 18 19  1  0  0  0  0
 18112  1  0  0  0  0
 19 20  1  0  0  0  0
 19 77  2  0  0  0  0
 20 21  1  0  0  0  0
 20 71  2  0  0  0  0
 21 22  2  0  0  0  0
 21 76  1  0  0  0  0
 22 23  1  0  0  0  0
 23 24  2  0  0  0  0
 23 75  1  0  0  0  0
 24 25  1  0  0  0  0
 24 36  1  0  0  0  0
 25 26  1  0  0  0  0
 25 34  2  0  0  0  0
 26 27  2  0  0  0  0
 26113  1  0  0  0  0
 27 28  1  0  0  0  0
 27114  1  0  0  0  0
 28 29  2  0  0  0  0
 28115  1  0  0  0  0
 29 30  1  0  0  0  0
 29 34  1  0  0  0  0
 30 31  2  0  0  0  0
 30 32  2  0  0  0  0
 30 33  1  0  0  0  0
 34 35  1  0  0  0  0
 36 37  2  0  0  0  0
 36 40  1  0  0  0  0
 37 38  1  0  0  0  0
 37116  1  0  0  0  0
 38 39  2  0  0  0  0
 38117  1  0  0  0  0
 39 40  1  0  0  0  0
 39 41  1  0  0  0  0
 40118  1  0  0  0  0
 41 42  1  0  0  0  0
 41 53  2  0  0  0  0
 42 43  1  0  0  0  0
 42 51  2  0  0  0  0
 43 44  2  0  0  0  0
 43119  1  0  0  0  0
 44 45  1  0  0  0  0
 44120  1  0  0  0  0
 45 46  2  0  0  0  0
 45121  1  0  0  0  0
 46 47  1  0  0  0  0
 46 51  1  0  0  0  0
 47 48  2  0  0  0  0
 47 49  2  0  0  0  0
 47 50  1  0  0  0  0
 51 52  1  0  0  0  0
 53 54  1  0  0  0  0
 53 74  1  0  0  0  0
 54 55  2  0  0  0  0
 55 56  1  0  0  0  0
 55 73  1  0  0  0  0
 56 57  1  0  0  0  0
 56 68  2  0  0  0  0
 57 58  1  0  0  0  0
 57 66  2  0  0  0  0
 58 59  2  0  0  0  0
 58122  1  0  0  0  0
 59 60  1  0  0  0  0
 59123  1  0  0  0  0
 60 61  2  0  0  0  0
 60124  1  0  0  0  0
 61 62  1  0  0  0  0
 61 66  1  0  0  0  0
 62 63  2  0  0  0  0
 62 64  2  0  0  0  0
 62 65  1  0  0  0  0
 66 67  1  0  0  0  0
 68 69  1  0  0  0  0
 68 72  1  0  0  0  0
 69 70  2  0  0  0  0
 69125  1  0  0  0  0
 70 71  1  0  0  0  0
 70126  1  0  0  0  0
 71 72  1  0  0  0  0
 72127  1  0  0  0  0
 73 74  2  0  0  0  0
 73128  1  0  0  0  0
 74129  1  0  0  0  0
 75 76  2  0  0  0  0
 75130  1  0  0  0  0
 76131  1  0  0  0  0
 77 78  1  0  0  0  0
 77132  1  0  0  0  0
 78133  1  0  0  0  0
 79 80  1  0  0  0  0
 79 90  2  0  0  0  0
 80 81  2  0  0  0  0
 80134  1  0  0  0  0
 81 82  1  0  0  0  0
 81135  1  0  0  0  0
 82 83  1  0  0  0  0
 82 89  2  0  0  0  0
 83 84  2  0  0  0  0
 83 85  1  0  0  0  0
 85 86  1  0  0  0  0
 85136  1  0  0  0  0
 85137  1  0  0  0  0
 86 87  1  0  0  0  0
 86138  1  0  0  0  0
 86139  1  0  0  0  0
 87 88  1  0  0  0  0
 87140  1  0  0  0  0
 87141  1  0  0  0  0
 89 90  1  0  0  0  0
 89142  1  0  0  0  0
 90143  1  0  0  0  0
M  CHG  3  33  -1  50  -1  65  -1
M  END
$$$$
