6_0_4534
 OpenBabel04152301363D

135146  0  0  1  0  0  0  0  0999 V2000
    1.1172   -0.0107    0.1159 O   0  0  0  0  0  0  0  0  0  0  0  0
    2.3410   -0.0248    0.0326 C   0  0  0  0  0  0  0  0  0  0  0  0
    2.9968    0.9720   -0.6537 N   0  0  0  0  0  0  0  0  0  0  0  0
    4.4086    1.0682   -0.9785 C   0  0  0  0  0  0  0  0  0  0  0  0
    4.6689    1.4109   -2.4369 C   0  0  0  0  0  0  0  0  0  0  0  0
    4.1598    2.7761   -2.8933 C   0  0  0  0  0  0  0  0  0  0  0  0
    4.5759    3.9722   -2.0333 C   0  0  0  0  0  0  0  0  0  0  0  0
    6.0722    4.1115   -1.7366 C   0  0  0  0  0  0  0  0  0  0  0  0
    6.9984    4.0655   -2.9465 C   0  0  0  0  0  0  0  0  0  0  0  0
    6.7149    5.1054   -3.9135 N   0  0  0  0  0  0  0  0  0  0  0  0
    7.5496    5.8825   -4.6532 C   0  0  0  0  0  0  0  0  0  0  0  0
    7.0267    6.6772   -5.4425 O   0  0  0  0  0  0  0  0  0  0  0  0
    9.0715    5.8518   -4.4971 C   0  0  1  0  0  0  0  0  0  0  0  0
    9.5054    6.4009   -3.1806 C   0  0  0  0  0  0  0  0  0  0  0  0
   10.4080    5.6120   -2.5925 C   0  0  0  0  0  0  0  0  0  0  0  0
   10.7759    4.4017   -3.4124 C   0  0  2  0  0  0  0  0  0  0  0  0
   12.1778    4.4710   -3.8082 N   0  0  0  0  0  0  0  0  0  0  0  0
   13.1972    4.7748   -2.9380 C   0  0  0  0  0  0  0  0  0  0  0  0
   13.1614    4.9833   -1.7376 O   0  0  0  0  0  0  0  0  0  0  0  0
   14.4837    4.7497   -3.6806 C   0  0  1  0  0  0  0  0  0  0  0  0
   15.1400    3.4712   -4.1267 C   0  0  0  0  0  0  0  0  0  0  0  0
   14.1298    4.1350   -5.0196 C   0  0  1  0  0  0  0  0  0  0  0  0
   12.6778    3.8441   -4.9212 C   0  0  0  0  0  0  0  0  0  0  0  0
   12.1242    3.0954   -5.7056 O   0  0  0  0  0  0  0  0  0  0  0  0
    9.7554    4.4823   -4.5806 C   0  0  0  0  0  0  0  0  0  0  0  0
    3.1251   -1.1274    0.6352 C   0  0  0  0  0  0  0  0  0  0  0  0
    4.2930   -0.8554    1.3505 C   0  0  0  0  0  0  0  0  0  0  0  0
    5.1143   -1.9007    1.7530 C   0  0  0  0  0  0  0  0  0  0  0  0
    4.7081   -3.2358    1.5847 C   0  0  0  0  0  0  0  0  0  0  0  0
    5.5443   -4.3149    2.1722 C   0  0  0  0  0  0  0  0  0  0  0  0
    6.1991   -5.3688    1.3222 C   0  0  0  0  0  0  0  0  0  0  0  0
    7.0056   -6.3317    1.6912 N   0  0  0  0  0  0  0  0  0  0  0  0
    7.3002   -7.0522    0.5397 C   0  0  0  0  0  0  0  0  0  0  0  0
    8.1129   -8.1279    0.3983 C   0  0  0  0  0  0  0  0  0  0  0  0
    8.2978   -8.7017   -0.9841 C   0  0  0  0  0  0  0  0  0  0  0  0
    9.0999   -8.0122   -1.9159 C   0  0  0  0  0  0  0  0  0  0  0  0
    9.3579   -8.5570   -3.1737 C   0  0  0  0  0  0  0  0  0  0  0  0
    8.8490   -9.8121   -3.4961 C   0  0  0  0  0  0  0  0  0  0  0  0
    8.0617  -10.5164   -2.5703 C   0  0  0  0  0  0  0  0  0  0  0  0
    7.5190  -12.1590   -3.0580 S   0  0  0  0  0  0  0  0  0  0  0  0
    6.5588  -11.8494   -4.1169 O   0  0  0  0  0  0  0  0  0  0  0  0
    8.7647  -12.7681   -3.5246 O   0  0  0  0  0  0  0  0  0  0  0  0
    6.9525  -12.7678   -1.8630 O   0  5  0  0  0  0  0  0  0  0  0  0
    7.7689   -9.9622   -1.3284 C   0  0  0  0  0  0  0  0  0  0  0  0
    6.9969  -10.5965   -0.4348 F   0  0  0  0  0  0  0  0  0  0  0  0
    8.8510   -8.7326    1.4782 C   0  0  0  0  0  0  0  0  0  0  0  0
    9.7343   -9.7978    1.4261 C   0  0  0  0  0  0  0  0  0  0  0  0
   10.1977  -10.0490    2.7223 C   0  0  0  0  0  0  0  0  0  0  0  0
    9.6194   -9.1279    3.5796 C   0  0  0  0  0  0  0  0  0  0  0  0
    8.7922   -8.3312    2.8043 N   0  0  0  0  0  0  0  0  0  0  0  0
    9.7996   -8.9956    5.0022 C   0  0  0  0  0  0  0  0  0  0  0  0
   10.7080   -9.9751    5.6963 C   0  0  0  0  0  0  0  0  0  0  0  0
   10.1512  -10.9853    6.5065 C   0  0  0  0  0  0  0  0  0  0  0  0
   10.9725  -11.8951    7.1700 C   0  0  0  0  0  0  0  0  0  0  0  0
   12.3515  -11.8371    6.9846 C   0  0  0  0  0  0  0  0  0  0  0  0
   12.9136  -10.8565    6.1510 C   0  0  0  0  0  0  0  0  0  0  0  0
   14.6910  -10.9085    5.8981 S   0  0  0  0  0  0  0  0  0  0  0  0
   15.1869  -10.3254    7.1433 O   0  0  0  0  0  0  0  0  0  0  0  0
   14.9447  -12.3425    5.7524 O   0  0  0  0  0  0  0  0  0  0  0  0
   14.9435  -10.1286    4.6937 O   0  5  0  0  0  0  0  0  0  0  0  0
   12.1040   -9.9164    5.5244 C   0  0  0  0  0  0  0  0  0  0  0  0
   12.6166   -8.9348    4.7680 F   0  0  0  0  0  0  0  0  0  0  0  0
    9.1873   -8.0689    5.7790 C   0  0  0  0  0  0  0  0  0  0  0  0
    8.2911   -7.0740    5.4124 N   0  0  0  0  0  0  0  0  0  0  0  0
    7.9302   -6.4896    6.5288 C   0  0  0  0  0  0  0  0  0  0  0  0
    7.0084   -5.3228    6.7266 C   0  0  0  0  0  0  0  0  0  0  0  0
    6.7530   -4.7562    8.0802 C   0  0  0  0  0  0  0  0  0  0  0  0
    7.7945   -4.1159    8.7779 C   0  0  0  0  0  0  0  0  0  0  0  0
    7.5719   -3.5731   10.0441 C   0  0  0  0  0  0  0  0  0  0  0  0
    6.2937   -3.6102   10.5958 C   0  0  0  0  0  0  0  0  0  0  0  0
    5.2414   -4.2150    9.8937 C   0  0  0  0  0  0  0  0  0  0  0  0
    3.5890   -4.0874   10.5855 S   0  0  0  0  0  0  0  0  0  0  0  0
    3.5863   -5.1754   11.5587 O   0  0  0  0  0  0  0  0  0  0  0  0
    3.5985   -2.7426   11.1634 O   0  0  0  0  0  0  0  0  0  0  0  0
    2.6878   -4.2379    9.4503 O   0  5  0  0  0  0  0  0  0  0  0  0
    5.4720   -4.8154    8.6624 C   0  0  0  0  0  0  0  0  0  0  0  0
    4.4959   -5.4468    7.9941 F   0  0  0  0  0  0  0  0  0  0  0  0
    6.4288   -4.7663    5.6468 C   0  0  0  0  0  0  0  0  0  0  0  0
    5.5312   -3.6191    5.6816 C   0  0  0  0  0  0  0  0  0  0  0  0
    5.0939   -3.3734    4.4397 C   0  0  0  0  0  0  0  0  0  0  0  0
    5.7280   -4.3121    3.5083 C   0  0  0  0  0  0  0  0  0  0  0  0
    6.4996   -5.1061    4.3158 N   0  0  0  0  0  0  0  0  0  0  0  0
    8.5473   -7.0562    7.7349 C   0  0  0  0  0  0  0  0  0  0  0  0
    9.3487   -7.9759    7.2163 C   0  0  0  0  0  0  0  0  0  0  0  0
    6.5765   -6.4212   -0.5439 C   0  0  0  0  0  0  0  0  0  0  0  0
    5.9128   -5.3516   -0.1211 C   0  0  0  0  0  0  0  0  0  0  0  0
    3.4805   -3.4990    0.9588 C   0  0  0  0  0  0  0  0  0  0  0  0
    2.7018   -2.4480    0.4611 C   0  0  0  0  0  0  0  0  0  0  0  0
    2.4346    1.7177   -0.9653 H   0  0  0  0  0  0  0  0  0  0  0  0
    4.8714    0.1279   -0.7629 H   0  0  0  0  0  0  0  0  0  0  0  0
    4.8157    1.8629   -0.3889 H   0  0  0  0  0  0  0  0  0  0  0  0
    4.1960    0.6644   -3.0402 H   0  0  0  0  0  0  0  0  0  0  0  0
    5.7329    1.4434   -2.5452 H   0  0  0  0  0  0  0  0  0  0  0  0
    3.0905    2.7387   -2.9058 H   0  0  0  0  0  0  0  0  0  0  0  0
    4.6048    2.9429   -3.8520 H   0  0  0  0  0  0  0  0  0  0  0  0
    4.0645    3.8931   -1.0967 H   0  0  0  0  0  0  0  0  0  0  0  0
    4.3188    4.8377   -2.6076 H   0  0  0  0  0  0  0  0  0  0  0  0
    6.3516    3.3146   -1.0795 H   0  0  0  0  0  0  0  0  0  0  0  0
    6.1941    5.0877   -1.3158 H   0  0  0  0  0  0  0  0  0  0  0  0
    6.8878    3.1149   -3.4251 H   0  0  0  0  0  0  0  0  0  0  0  0
    7.9964    4.2197   -2.5927 H   0  0  0  0  0  0  0  0  0  0  0  0
    5.7569    5.2787   -4.0598 H   0  0  0  0  0  0  0  0  0  0  0  0
    9.3705    6.4382   -5.3407 H   0  0  0  0  0  0  0  0  0  0  0  0
    9.1520    7.2813   -2.7744 H   0  0  0  0  0  0  0  0  0  0  0  0
   10.8148    5.8117   -1.6653 H   0  0  0  0  0  0  0  0  0  0  0  0
   10.7129    3.4585   -2.9111 H   0  0  0  0  0  0  0  0  0  0  0  0
   14.9384    5.5986   -3.2143 H   0  0  0  0  0  0  0  0  0  0  0  0
   14.8982    2.5493   -3.6404 H   0  0  0  0  0  0  0  0  0  0  0  0
   16.1522    3.1452   -4.2457 H   0  0  0  0  0  0  0  0  0  0  0  0
   14.1795    4.2938   -6.0766 H   0  0  0  0  0  0  0  0  0  0  0  0
   10.2630    4.3833   -5.5173 H   0  0  0  0  0  0  0  0  0  0  0  0
    9.0347    3.6947   -4.5082 H   0  0  0  0  0  0  0  0  0  0  0  0
    4.5451    0.1188    1.5793 H   0  0  0  0  0  0  0  0  0  0  0  0
    6.0313   -1.6952    2.1796 H   0  0  0  0  0  0  0  0  0  0  0  0
    9.5004   -7.0948   -1.6648 H   0  0  0  0  0  0  0  0  0  0  0  0
    9.9223   -8.0332   -3.8608 H   0  0  0  0  0  0  0  0  0  0  0  0
    9.0511  -10.2268   -4.4193 H   0  0  0  0  0  0  0  0  0  0  0  0
   10.0046  -10.3175    0.5765 H   0  0  0  0  0  0  0  0  0  0  0  0
   10.8582  -10.7941    2.9934 H   0  0  0  0  0  0  0  0  0  0  0  0
    8.2430   -7.5886    3.1451 H   0  0  0  0  0  0  0  0  0  0  0  0
    9.1265  -11.0518    6.6093 H   0  0  0  0  0  0  0  0  0  0  0  0
   10.5616  -12.6067    7.7943 H   0  0  0  0  0  0  0  0  0  0  0  0
   12.9631  -12.5177    7.4619 H   0  0  0  0  0  0  0  0  0  0  0  0
    8.7308   -4.0473    8.3493 H   0  0  0  0  0  0  0  0  0  0  0  0
    8.3509   -3.1461   10.5693 H   0  0  0  0  0  0  0  0  0  0  0  0
    6.1207   -3.1917   11.5232 H   0  0  0  0  0  0  0  0  0  0  0  0
    5.2743   -3.0833    6.5254 H   0  0  0  0  0  0  0  0  0  0  0  0
    4.4172   -2.6391    4.1792 H   0  0  0  0  0  0  0  0  0  0  0  0
    7.0510   -5.8477    3.9763 H   0  0  0  0  0  0  0  0  0  0  0  0
    8.3968   -6.8048    8.7244 H   0  0  0  0  0  0  0  0  0  0  0  0
   10.0044   -8.5526    7.7663 H   0  0  0  0  0  0  0  0  0  0  0  0
    6.5765   -6.7591   -1.5190 H   0  0  0  0  0  0  0  0  0  0  0  0
    5.3443   -4.6825   -0.6635 H   0  0  0  0  0  0  0  0  0  0  0  0
    3.1501   -4.4722    0.8649 H   0  0  0  0  0  0  0  0  0  0  0  0
    1.8179   -2.6474   -0.0328 H   0  0  0  0  0  0  0  0  0  0  0  0
  1  2  2  0  0  0  0
  2  3  1  0  0  0  0
  2 26  1  0  0  0  0
  3  4  1  0  0  0  0
  3 89  1  0  0  0  0
  4  5  1  0  0  0  0
  4 90  1  0  0  0  0
  4 91  1  0  0  0  0
  5  6  1  0  0  0  0
  5 92  1  0  0  0  0
  5 93  1  0  0  0  0
  6  7  1  0  0  0  0
  6 94  1  0  0  0  0
  6 95  1  0  0  0  0
  7  8  1  0  0  0  0
  7 96  1  0  0  0  0
  7 97  1  0  0  0  0
  8  9  1  0  0  0  0
  8 98  1  0  0  0  0
  8 99  1  0  0  0  0
  9 10  1  0  0  0  0
  9100  1  0  0  0  0
  9101  1  0  0  0  0
 10 11  1  0  0  0  0
 10102  1  0  0  0  0
 11 12  2  0  0  0  0
 11 13  1  0  0  0  0
 13 14  1  0  0  0  0
 13 25  1  0  0  0  0
 13103  1  6  0  0  0
 14 15  2  0  0  0  0
 14104  1  0  0  0  0
 15 16  1  0  0  0  0
 15105  1  0  0  0  0
 16 25  1  0  0  0  0
 16 17  1  0  0  0  0
 16106  1  1  0  0  0
 17 18  1  0  0  0  0
 17 23  1  0  0  0  0
 18 19  2  0  0  0  0
 18 20  1  0  0  0  0
 20 21  1  0  0  0  0
 20 22  1  0  0  0  0
 20107  1  6  0  0  0
 21 22  1  0  0  0  0
 21108  1  0  0  0  0
 21109  1  0  0  0  0
 22 23  1  0  0  0  0
 22110  1  6  0  0  0
 23 24  2  0  0  0  0
 25111  1  0  0  0  0
 25112  1  0  0  0  0
 26 27  1  0  0  0  0
 26 88  2  0  0  0  0
 27 28  2  0  0  0  0
 27113  1  0  0  0  0
 28 29  1  0  0  0  0
 28114  1  0  0  0  0
 29 30  1  0  0  0  0
 29 87  2  0  0  0  0
 30 31  1  0  0  0  0
 30 81  2  0  0  0  0
 31 32  2  0  0  0  0
 31 86  1  0  0  0  0
 32 33  1  0  0  0  0
 33 34  2  0  0  0  0
 33 85  1  0  0  0  0
 34 35  1  0  0  0  0
 34 46  1  0  0  0  0
 35 36  1  0  0  0  0
 35 44  2  0  0  0  0
 36 37  2  0  0  0  0
 36115  1  0  0  0  0
 37 38  1  0  0  0  0
 37116  1  0  0  0  0
 38 39  2  0  0  0  0
 38117  1  0  0  0  0
 39 40  1  0  0  0  0
 39 44  1  0  0  0  0
 40 41  2  0  0  0  0
 40 42  2  0  0  0  0
 40 43  1  0  0  0  0
 44 45  1  0  0  0  0
 46 47  2  0  0  0  0
 46 50  1  0  0  0  0
 47 48  1  0  0  0  0
 47118  1  0  0  0  0
 48 49  2  0  0  0  0
 48119  1  0  0  0  0
 49 50  1  0  0  0  0
 49 51  1  0  0  0  0
 50120  1  0  0  0  0
 51 52  1  0  0  0  0
 51 63  2  0  0  0  0
 52 53  1  0  0  0  0
 52 61  2  0  0  0  0
 53 54  2  0  0  0  0
 53121  1  0  0  0  0
 54 55  1  0  0  0  0
 54122  1  0  0  0  0
 55 56  2  0  0  0  0
 55123  1  0  0  0  0
 56 57  1  0  0  0  0
 56 61  1  0  0  0  0
 57 58  2  0  0  0  0
 57 59  2  0  0  0  0
 57 60  1  0  0  0  0
 61 62  1  0  0  0  0
 63 64  1  0  0  0  0
 63 84  1  0  0  0  0
 64 65  2  0  0  0  0
 65 66  1  0  0  0  0
 65 83  1  0  0  0  0
 66 67  1  0  0  0  0
 66 78  2  0  0  0  0
 67 68  1  0  0  0  0
 67 76  2  0  0  0  0
 68 69  2  0  0  0  0
 68124  1  0  0  0  0
 69 70  1  0  0  0  0
 69125  1  0  0  0  0
 70 71  2  0  0  0  0
 70126  1  0  0  0  0
 71 72  1  0  0  0  0
 71 76  1  0  0  0  0
 72 73  2  0  0  0  0
 72 74  2  0  0  0  0
 72 75  1  0  0  0  0
 76 77  1  0  0  0  0
 78 79  1  0  0  0  0
 78 82  1  0  0  0  0
 79 80  2  0  0  0  0
 79127  1  0  0  0  0
 80 81  1  0  0  0  0
 80128  1  0  0  0  0
 81 82  1  0  0  0  0
 82129  1  0  0  0  0
 83 84  2  0  0  0  0
 83130  1  0  0  0  0
 84131  1  0  0  0  0
 85 86  2  0  0  0  0
 85132  1  0  0  0  0
 86133  1  0  0  0  0
 87 88  1  0  0  0  0
 87134  1  0  0  0  0
 88135  1  0  0  0  0
M  CHG  3  43  -1  60  -1  75  -1
M  END
$$$$
