6_0_5662
 OpenBabel04152301373D

138147  0  0  0  0  0  0  0  0999 V2000
    2.5945    0.7096    0.0490 C   0  0  0  0  0  0  0  0  0  0  0  0
    1.1056    0.6210   -0.1284 C   0  0  0  0  0  0  0  0  0  0  0  0
    0.3111    1.7599   -0.0523 C   0  0  0  0  0  0  0  0  0  0  0  0
   -1.0674    1.6469   -0.2121 C   0  0  0  0  0  0  0  0  0  0  0  0
   -1.6522    0.4035   -0.4771 C   0  0  0  0  0  0  0  0  0  0  0  0
   -3.0170    0.4230   -0.5842 O   0  0  0  0  0  0  0  0  0  0  0  0
   -0.8791   -0.7635   -0.5961 C   0  0  0  0  0  0  0  0  0  0  0  0
   -1.5490   -2.0804   -0.8968 C   0  0  0  0  0  0  0  0  0  0  0  0
   -2.7795   -2.0385   -1.0395 O   0  0  0  0  0  0  0  0  0  0  0  0
   -0.8873   -3.4703   -0.9052 C   0  0  0  0  0  0  0  0  0  0  0  0
    0.3067   -3.8845   -1.7576 C   0  0  0  0  0  0  0  0  0  0  0  0
    1.7581   -3.5141   -1.4662 C   0  0  0  0  0  0  0  0  0  0  0  0
    2.5383   -3.9549   -0.2281 C   0  0  0  0  0  0  0  0  0  0  0  0
    3.6592   -4.4586   -0.3911 O   0  0  0  0  0  0  0  0  0  0  0  0
    2.1934   -3.7487    1.0615 N   0  0  0  0  0  0  0  0  0  0  0  0
    1.0656   -3.1579    1.7523 C   0  0  0  0  0  0  0  0  0  0  0  0
    0.3207   -4.1851    2.6037 C   0  0  0  0  0  0  0  0  0  0  0  0
    0.6736   -4.0861    4.0879 C   0  0  0  0  0  0  0  0  0  0  0  0
    0.1861   -2.8015    4.7723 C   0  0  0  0  0  0  0  0  0  0  0  0
   -1.3276   -2.5650    4.7395 C   0  0  0  0  0  0  0  0  0  0  0  0
   -2.1758   -3.7178    5.2700 C   0  0  0  0  0  0  0  0  0  0  0  0
   -1.7828   -4.1144    6.6140 N   0  0  0  0  0  0  0  0  0  0  0  0
   -2.5418   -4.2351    7.7502 C   0  0  0  0  0  0  0  0  0  0  0  0
   -1.9940   -4.3956    8.8359 O   0  0  0  0  0  0  0  0  0  0  0  0
   -4.0151   -4.1624    7.6643 C   0  0  0  0  0  0  0  0  0  0  0  0
   -4.7101   -3.4044    8.6101 C   0  0  0  0  0  0  0  0  0  0  0  0
   -6.0998   -3.2999    8.5256 C   0  0  0  0  0  0  0  0  0  0  0  0
   -6.7956   -3.9210    7.4755 C   0  0  0  0  0  0  0  0  0  0  0  0
   -8.2656   -3.7725    7.3328 C   0  0  0  0  0  0  0  0  0  0  0  0
   -9.1625   -4.9761    7.4345 C   0  0  0  0  0  0  0  0  0  0  0  0
  -10.4589   -5.0535    7.2817 N   0  0  0  0  0  0  0  0  0  0  0  0
  -10.7777   -6.3998    7.4121 C   0  0  0  0  0  0  0  0  0  0  0  0
  -11.9967   -6.9898    7.3906 C   0  0  0  0  0  0  0  0  0  0  0  0
  -12.0555   -8.4805    7.6070 C   0  0  0  0  0  0  0  0  0  0  0  0
  -11.7624   -9.0103    8.8810 C   0  0  0  0  0  0  0  0  0  0  0  0
  -11.8144  -10.3845    9.1103 C   0  0  0  0  0  0  0  0  0  0  0  0
  -12.2123  -11.2357    8.0837 C   0  0  0  0  0  0  0  0  0  0  0  0
  -12.5395  -10.7171    6.8200 C   0  0  0  0  0  0  0  0  0  0  0  0
  -13.1199  -11.8883    5.5876 S   0  0  0  0  0  0  0  0  0  0  0  0
  -11.8848  -12.5918    5.2445 O   0  0  0  0  0  0  0  0  0  0  0  0
  -14.0831  -12.6848    6.3487 O   0  0  0  0  0  0  0  0  0  0  0  0
  -13.7036  -11.0898    4.5190 O   0  5  0  0  0  0  0  0  0  0  0  0
  -12.4444   -9.3522    6.5712 C   0  0  0  0  0  0  0  0  0  0  0  0
  -12.6996   -8.8354    5.3609 F   0  0  0  0  0  0  0  0  0  0  0  0
  -13.2323   -6.2735    7.2219 C   0  0  0  0  0  0  0  0  0  0  0  0
  -14.5252   -6.7628    7.2769 C   0  0  0  0  0  0  0  0  0  0  0  0
  -15.4037   -5.7050    7.0189 C   0  0  0  0  0  0  0  0  0  0  0  0
  -14.6592   -4.5511    6.8329 C   0  0  0  0  0  0  0  0  0  0  0  0
  -13.3296   -4.9162    6.9555 N   0  0  0  0  0  0  0  0  0  0  0  0
  -15.1282   -3.2181    6.5514 C   0  0  0  0  0  0  0  0  0  0  0  0
  -16.6165   -3.0116    6.4421 C   0  0  0  0  0  0  0  0  0  0  0  0
  -17.2049   -2.7980    5.1800 C   0  0  0  0  0  0  0  0  0  0  0  0
  -18.5858   -2.6471    5.0586 C   0  0  0  0  0  0  0  0  0  0  0  0
  -19.3924   -2.7622    6.1885 C   0  0  0  0  0  0  0  0  0  0  0  0
  -18.8183   -3.0037    7.4471 C   0  0  0  0  0  0  0  0  0  0  0  0
  -19.9409   -3.2363    8.8301 S   0  0  0  0  0  0  0  0  0  0  0  0
  -20.4134   -1.8726    9.0630 O   0  0  0  0  0  0  0  0  0  0  0  0
  -20.9434   -4.1415    8.2671 O   0  0  0  0  0  0  0  0  0  0  0  0
  -19.1422   -3.8129    9.9032 O   0  5  0  0  0  0  0  0  0  0  0  0
  -17.4390   -3.1044    7.5824 C   0  0  0  0  0  0  0  0  0  0  0  0
  -16.8583   -3.2894    8.7769 F   0  0  0  0  0  0  0  0  0  0  0  0
  -14.3285   -2.1398    6.3603 C   0  0  0  0  0  0  0  0  0  0  0  0
  -12.9422   -2.0563    6.4174 N   0  0  0  0  0  0  0  0  0  0  0  0
  -12.6439   -0.8134    6.1253 C   0  0  0  0  0  0  0  0  0  0  0  0
  -11.2964   -0.1452    6.0971 C   0  0  0  0  0  0  0  0  0  0  0  0
  -11.1610    1.3003    5.7612 C   0  0  0  0  0  0  0  0  0  0  0  0
  -11.6569    2.2690    6.6552 C   0  0  0  0  0  0  0  0  0  0  0  0
  -11.5388    3.6292    6.3674 C   0  0  0  0  0  0  0  0  0  0  0  0
  -10.8769    4.0331    5.2112 C   0  0  0  0  0  0  0  0  0  0  0  0
  -10.3499    3.0768    4.3296 C   0  0  0  0  0  0  0  0  0  0  0  0
   -9.3960    3.6891    2.9362 S   0  0  0  0  0  0  0  0  0  0  0  0
  -10.4387    4.2622    2.0895 O   0  0  0  0  0  0  0  0  0  0  0  0
   -8.5172    4.6666    3.5796 O   0  0  0  0  0  0  0  0  0  0  0  0
   -8.7058    2.5271    2.3934 O   0  5  0  0  0  0  0  0  0  0  0  0
  -10.5137    1.7200    4.5831 C   0  0  0  0  0  0  0  0  0  0  0  0
  -10.0574    0.7821    3.7411 F   0  0  0  0  0  0  0  0  0  0  0  0
  -10.2060   -0.8592    6.4385 C   0  0  0  0  0  0  0  0  0  0  0  0
   -8.8414   -0.3440    6.4873 C   0  0  0  0  0  0  0  0  0  0  0  0
   -8.0066   -1.3438    6.8123 C   0  0  0  0  0  0  0  0  0  0  0  0
   -8.7830   -2.5677    7.0227 C   0  0  0  0  0  0  0  0  0  0  0  0
  -10.0802   -2.1806    6.7984 N   0  0  0  0  0  0  0  0  0  0  0  0
  -13.8094    0.0270    5.8159 C   0  0  0  0  0  0  0  0  0  0  0  0
  -14.8120   -0.8150    6.0279 C   0  0  0  0  0  0  0  0  0  0  0  0
   -9.5344   -7.1092    7.6207 C   0  0  0  0  0  0  0  0  0  0  0  0
   -8.5149   -6.2682    7.7164 C   0  0  0  0  0  0  0  0  0  0  0  0
   -6.0848   -4.6906    6.5425 C   0  0  0  0  0  0  0  0  0  0  0  0
   -4.7088   -4.8541    6.6677 C   0  0  0  0  0  0  0  0  0  0  0  0
    0.4923   -0.6156   -0.3914 C   0  0  0  0  0  0  0  0  0  0  0  0
    2.8711    1.7254    0.2401 H   0  0  0  0  0  0  0  0  0  0  0  0
    3.0807    0.3690   -0.8413 H   0  0  0  0  0  0  0  0  0  0  0  0
    2.8924    0.0975    0.8745 H   0  0  0  0  0  0  0  0  0  0  0  0
    0.7402    2.6822    0.1214 H   0  0  0  0  0  0  0  0  0  0  0  0
   -1.6624    2.4865   -0.1345 H   0  0  0  0  0  0  0  0  0  0  0  0
   -3.4824    1.2315   -0.4961 H   0  0  0  0  0  0  0  0  0  0  0  0
   -1.6692   -4.1526   -1.1657 H   0  0  0  0  0  0  0  0  0  0  0  0
   -0.4295   -3.4624    0.0619 H   0  0  0  0  0  0  0  0  0  0  0  0
    0.1053   -3.5022   -2.7365 H   0  0  0  0  0  0  0  0  0  0  0  0
    0.3313   -4.9356   -1.5590 H   0  0  0  0  0  0  0  0  0  0  0  0
    1.7840   -2.4445   -1.4552 H   0  0  0  0  0  0  0  0  0  0  0  0
    2.2597   -4.0785   -2.2243 H   0  0  0  0  0  0  0  0  0  0  0  0
    2.8774   -4.0823    1.6861 H   0  0  0  0  0  0  0  0  0  0  0  0
    0.3898   -2.7524    1.0286 H   0  0  0  0  0  0  0  0  0  0  0  0
    1.4369   -2.3934    2.4023 H   0  0  0  0  0  0  0  0  0  0  0  0
    0.5725   -5.1653    2.2563 H   0  0  0  0  0  0  0  0  0  0  0  0
   -0.7265   -3.9884    2.5060 H   0  0  0  0  0  0  0  0  0  0  0  0
    1.7384   -4.1319    4.1823 H   0  0  0  0  0  0  0  0  0  0  0  0
    0.1758   -4.8987    4.5746 H   0  0  0  0  0  0  0  0  0  0  0  0
    0.6591   -1.9719    4.2896 H   0  0  0  0  0  0  0  0  0  0  0  0
    0.4429   -2.9059    5.8058 H   0  0  0  0  0  0  0  0  0  0  0  0
   -1.6127   -2.3839    3.7242 H   0  0  0  0  0  0  0  0  0  0  0  0
   -1.5133   -1.7354    5.3893 H   0  0  0  0  0  0  0  0  0  0  0  0
   -2.0642   -4.5574    4.6162 H   0  0  0  0  0  0  0  0  0  0  0  0
   -3.1929   -3.3876    5.3084 H   0  0  0  0  0  0  0  0  0  0  0  0
   -0.8282   -4.3283    6.7243 H   0  0  0  0  0  0  0  0  0  0  0  0
   -4.1989   -2.9243    9.3672 H   0  0  0  0  0  0  0  0  0  0  0  0
   -6.6185   -2.7635    9.2385 H   0  0  0  0  0  0  0  0  0  0  0  0
  -11.5066   -8.3736    9.6519 H   0  0  0  0  0  0  0  0  0  0  0  0
  -11.5598  -10.7675   10.0341 H   0  0  0  0  0  0  0  0  0  0  0  0
  -12.2672  -12.2525    8.2516 H   0  0  0  0  0  0  0  0  0  0  0  0
  -14.7949   -7.7392    7.4741 H   0  0  0  0  0  0  0  0  0  0  0  0
  -16.4325   -5.7726    6.9746 H   0  0  0  0  0  0  0  0  0  0  0  0
  -12.5652   -4.3022    6.8666 H   0  0  0  0  0  0  0  0  0  0  0  0
  -16.6091   -2.7528    4.3385 H   0  0  0  0  0  0  0  0  0  0  0  0
  -19.0077   -2.4513    4.1373 H   0  0  0  0  0  0  0  0  0  0  0  0
  -20.4164   -2.6696    6.1002 H   0  0  0  0  0  0  0  0  0  0  0  0
  -12.1121    1.9699    7.5318 H   0  0  0  0  0  0  0  0  0  0  0  0
  -11.9399    4.3319    7.0080 H   0  0  0  0  0  0  0  0  0  0  0  0
  -10.7735    5.0383    5.0019 H   0  0  0  0  0  0  0  0  0  0  0  0
   -8.5629    0.6322    6.3017 H   0  0  0  0  0  0  0  0  0  0  0  0
   -6.9815   -1.2629    6.8999 H   0  0  0  0  0  0  0  0  0  0  0  0
  -10.8478   -2.7907    6.8867 H   0  0  0  0  0  0  0  0  0  0  0  0
  -13.8397    1.0132    5.5132 H   0  0  0  0  0  0  0  0  0  0  0  0
  -15.8097   -0.5591    5.9642 H   0  0  0  0  0  0  0  0  0  0  0  0
   -9.4522   -8.1358    7.6864 H   0  0  0  0  0  0  0  0  0  0  0  0
   -7.5255   -6.4669    7.9321 H   0  0  0  0  0  0  0  0  0  0  0  0
   -6.5854   -5.1380    5.7588 H   0  0  0  0  0  0  0  0  0  0  0  0
   -4.2020   -5.4843    6.0265 H   0  0  0  0  0  0  0  0  0  0  0  0
    1.0874   -1.4576   -0.4353 H   0  0  0  0  0  0  0  0  0  0  0  0
  1  2  1  0  0  0  0
  1 89  1  0  0  0  0
  1 90  1  0  0  0  0
  1 91  1  0  0  0  0
  2  3  1  0  0  0  0
  2 88  2  0  0  0  0
  3  4  2  0  0  0  0
  3 92  1  0  0  0  0
  4  5  1  0  0  0  0
  4 93  1  0  0  0  0
  5  6  1  0  0  0  0
  5  7  2  0  0  0  0
  6 94  1  0  0  0  0
  7  8  1  0  0  0  0
  7 88  1  0  0  0  0
  8  9  2  0  0  0  0
  8 10  1  0  0  0  0
 10 11  1  0  0  0  0
 10 95  1  0  0  0  0
 10 96  1  0  0  0  0
 11 12  1  0  0  0  0
 11 97  1  0  0  0  0
 11 98  1  0  0  0  0
 12 13  1  0  0  0  0
 12 99  1  0  0  0  0
 12100  1  0  0  0  0
 13 14  2  0  0  0  0
 13 15  1  0  0  0  0
 15 16  1  0  0  0  0
 15101  1  0  0  0  0
 16 17  1  0  0  0  0
 16102  1  0  0  0  0
 16103  1  0  0  0  0
 17 18  1  0  0  0  0
 17104  1  0  0  0  0
 17105  1  0  0  0  0
 18 19  1  0  0  0  0
 18106  1  0  0  0  0
 18107  1  0  0  0  0
 19 20  1  0  0  0  0
 19108  1  0  0  0  0
 19109  1  0  0  0  0
 20 21  1  0  0  0  0
 20110  1  0  0  0  0
 20111  1  0  0  0  0
 21 22  1  0  0  0  0
 21112  1  0  0  0  0
 21113  1  0  0  0  0
 22 23  1  0  0  0  0
 22114  1  0  0  0  0
 23 24  2  0  0  0  0
 23 25  1  0  0  0  0
 25 26  1  0  0  0  0
 25 87  2  0  0  0  0
 26 27  2  0  0  0  0
 26115  1  0  0  0  0
 27 28  1  0  0  0  0
 27116  1  0  0  0  0
 28 29  1  0  0  0  0
 28 86  2  0  0  0  0
 29 30  1  0  0  0  0
 29 80  2  0  0  0  0
 30 31  2  0  0  0  0
 30 85  1  0  0  0  0
 31 32  1  0  0  0  0
 32 33  2  0  0  0  0
 32 84  1  0  0  0  0
 33 34  1  0  0  0  0
 33 45  1  0  0  0  0
 34 35  1  0  0  0  0
 34 43  2  0  0  0  0
 35 36  2  0  0  0  0
 35117  1  0  0  0  0
 36 37  1  0  0  0  0
 36118  1  0  0  0  0
 37 38  2  0  0  0  0
 37119  1  0  0  0  0
 38 39  1  0  0  0  0
 38 43  1  0  0  0  0
 39 40  2  0  0  0  0
 39 41  2  0  0  0  0
 39 42  1  0  0  0  0
 43 44  1  0  0  0  0
 45 46  2  0  0  0  0
 45 49  1  0  0  0  0
 46 47  1  0  0  0  0
 46120  1  0  0  0  0
 47 48  2  0  0  0  0
 47121  1  0  0  0  0
 48 49  1  0  0  0  0
 48 50  1  0  0  0  0
 49122  1  0  0  0  0
 50 51  1  0  0  0  0
 50 62  2  0  0  0  0
 51 52  1  0  0  0  0
 51 60  2  0  0  0  0
 52 53  2  0  0  0  0
 52123  1  0  0  0  0
 53 54  1  0  0  0  0
 53124  1  0  0  0  0
 54 55  2  0  0  0  0
 54125  1  0  0  0  0
 55 56  1  0  0  0  0
 55 60  1  0  0  0  0
 56 57  2  0  0  0  0
 56 58  2  0  0  0  0
 56 59  1  0  0  0  0
 60 61  1  0  0  0  0
 62 63  1  0  0  0  0
 62 83  1  0  0  0  0
 63 64  2  0  0  0  0
 64 65  1  0  0  0  0
 64 82  1  0  0  0  0
 65 66  1  0  0  0  0
 65 77  2  0  0  0  0
 66 67  1  0  0  0  0
 66 75  2  0  0  0  0
 67 68  2  0  0  0  0
 67126  1  0  0  0  0
 68 69  1  0  0  0  0
 68127  1  0  0  0  0
 69 70  2  0  0  0  0
 69128  1  0  0  0  0
 70 71  1  0  0  0  0
 70 75  1  0  0  0  0
 71 72  2  0  0  0  0
 71 73  2  0  0  0  0
 71 74  1  0  0  0  0
 75 76  1  0  0  0  0
 77 78  1  0  0  0  0
 77 81  1  0  0  0  0
 78 79  2  0  0  0  0
 78129  1  0  0  0  0
 79 80  1  0  0  0  0
 79130  1  0  0  0  0
 80 81  1  0  0  0  0
 81131  1  0  0  0  0
 82 83  2  0  0  0  0
 82132  1  0  0  0  0
 83133  1  0  0  0  0
 84 85  2  0  0  0  0
 84134  1  0  0  0  0
 85135  1  0  0  0  0
 86 87  1  0  0  0  0
 86136  1  0  0  0  0
 87137  1  0  0  0  0
 88138  1  0  0  0  0
M  CHG  3  42  -1  59  -1  74  -1
M  END
$$$$
