6_0_5316
 OpenBabel04152301363D

144154  0  0  1  0  0  0  0  0999 V2000
    2.0081    2.0900   -0.0882 C   0  0  0  0  0  0  0  0  0  0  0  0
    0.6838    1.4520    0.1885 C   0  0  0  0  0  0  0  0  0  0  0  0
   -0.5039    2.1892    0.1570 C   0  0  0  0  0  0  0  0  0  0  0  0
   -1.7285    1.5681    0.4164 C   0  0  0  0  0  0  0  0  0  0  0  0
   -1.7953    0.1936    0.6971 C   0  0  0  0  0  0  0  0  0  0  0  0
   -3.1678   -0.4613    0.8653 C   0  0  1  0  0  0  0  0  0  0  0  0
   -3.6777   -0.7402   -0.5369 C   0  0  0  0  0  0  0  0  0  0  0  0
   -3.0339   -1.6723    1.6847 N   0  0  0  0  0  0  0  0  0  0  0  0
   -4.0858   -2.2517    2.3886 C   0  0  0  0  0  0  0  0  0  0  0  0
   -3.9468   -2.2307    3.7973 C   0  0  0  0  0  0  0  0  0  0  0  0
   -4.9804   -2.5978    4.6577 C   0  0  0  0  0  0  0  0  0  0  0  0
   -6.2008   -2.9787    4.1274 C   0  0  0  0  0  0  0  0  0  0  0  0
   -6.3458   -3.0696    2.7422 C   0  0  0  0  0  0  0  0  0  0  0  0
   -5.2832   -2.7618    1.8591 C   0  0  0  0  0  0  0  0  0  0  0  0
   -5.5884   -3.0532    0.4262 C   0  0  0  0  0  0  0  0  0  0  0  0
   -6.7032   -2.7441   -0.0042 O   0  0  0  0  0  0  0  0  0  0  0  0
   -4.7254   -3.7129   -0.4249 N   0  0  0  0  0  0  0  0  0  0  0  0
   -3.3841   -4.2114   -0.1925 C   0  0  0  0  0  0  0  0  0  0  0  0
   -2.6370   -4.7516   -1.4204 C   0  0  0  0  0  0  0  0  0  0  0  0
   -2.8333   -4.1352   -2.8167 C   0  0  0  0  0  0  0  0  0  0  0  0
   -2.4207   -2.6902   -3.1435 C   0  0  0  0  0  0  0  0  0  0  0  0
   -1.1195   -2.1560   -2.5371 C   0  0  0  0  0  0  0  0  0  0  0  0
    0.1130   -2.8092   -3.1206 C   0  0  0  0  0  0  0  0  0  0  0  0
    0.3577   -2.4044   -4.5037 N   0  0  0  0  0  0  0  0  0  0  0  0
    1.5446   -2.4571   -5.2120 C   0  0  0  0  0  0  0  0  0  0  0  0
    1.7424   -1.7220   -6.1649 O   0  0  0  0  0  0  0  0  0  0  0  0
    2.5711   -3.4204   -4.7775 C   0  0  0  0  0  0  0  0  0  0  0  0
    3.9370   -3.2140   -5.0249 C   0  0  0  0  0  0  0  0  0  0  0  0
    4.8523   -4.1834   -4.6272 C   0  0  0  0  0  0  0  0  0  0  0  0
    4.3642   -5.2795   -3.9252 C   0  0  0  0  0  0  0  0  0  0  0  0
    5.1187   -6.4411   -3.5215 C   0  0  0  0  0  0  0  0  0  0  0  0
    5.9188   -6.3521   -2.3024 C   0  0  0  0  0  0  0  0  0  0  0  0
    6.8410   -7.1816   -1.9805 N   0  0  0  0  0  0  0  0  0  0  0  0
    7.0340   -7.0154   -0.6265 C   0  0  0  0  0  0  0  0  0  0  0  0
    7.3193   -8.1147    0.1292 C   0  0  0  0  0  0  0  0  0  0  0  0
    7.3659   -8.1785    1.6400 C   0  0  0  0  0  0  0  0  0  0  0  0
    7.4560   -7.0397    2.4684 C   0  0  0  0  0  0  0  0  0  0  0  0
    7.4543   -7.1262    3.8697 C   0  0  0  0  0  0  0  0  0  0  0  0
    7.3998   -8.3659    4.4886 C   0  0  0  0  0  0  0  0  0  0  0  0
    7.3600   -9.5114    3.6979 C   0  0  0  0  0  0  0  0  0  0  0  0
    7.3184  -11.1366    4.4569 S   0  0  0  0  0  0  0  0  0  0  0  0
    6.0274  -11.6612    4.0225 O   0  0  0  0  0  0  0  0  0  0  0  0
    8.5107  -11.7832    3.9204 O   0  0  0  0  0  0  0  0  0  0  0  0
    7.3930  -10.8364    5.8881 O   0  5  0  0  0  0  0  0  0  0  0  0
    7.3533   -9.4254    2.3069 C   0  0  0  0  0  0  0  0  0  0  0  0
    7.3532  -10.5670    1.6083 F   0  0  0  0  0  0  0  0  0  0  0  0
    7.2915   -9.3129   -0.7095 C   0  0  0  0  0  0  0  0  0  0  0  0
    6.3907  -10.3535   -0.8679 C   0  0  0  0  0  0  0  0  0  0  0  0
    6.7292  -11.0529   -2.0649 C   0  0  0  0  0  0  0  0  0  0  0  0
    7.8252  -10.4275   -2.6281 C   0  0  0  0  0  0  0  0  0  0  0  0
    8.1358   -9.3768   -1.7980 N   0  0  0  0  0  0  0  0  0  0  0  0
    8.6675  -10.6331   -3.7918 C   0  0  0  0  0  0  0  0  0  0  0  0
   10.0504  -11.1720   -3.5610 C   0  0  0  0  0  0  0  0  0  0  0  0
   10.7343  -10.8576   -2.3572 C   0  0  0  0  0  0  0  0  0  0  0  0
   12.0454  -11.2546   -2.1118 C   0  0  0  0  0  0  0  0  0  0  0  0
   12.7216  -11.9641   -3.0864 C   0  0  0  0  0  0  0  0  0  0  0  0
   12.0469  -12.3335   -4.2554 C   0  0  0  0  0  0  0  0  0  0  0  0
   12.9347  -13.1044   -5.5999 S   0  0  0  0  0  0  0  0  0  0  0  0
   12.2492  -14.3803   -5.7713 O   0  0  0  0  0  0  0  0  0  0  0  0
   12.7747  -12.1301   -6.6775 O   0  0  0  0  0  0  0  0  0  0  0  0
   14.3008  -13.2117   -5.0865 O   0  5  0  0  0  0  0  0  0  0  0  0
   10.7104  -12.0051   -4.4614 C   0  0  0  0  0  0  0  0  0  0  0  0
   10.0455  -12.5152   -5.5082 F   0  0  0  0  0  0  0  0  0  0  0  0
    8.1809  -10.2446   -5.0089 C   0  0  0  0  0  0  0  0  0  0  0  0
    6.9538   -9.6663   -5.1457 N   0  0  0  0  0  0  0  0  0  0  0  0
    6.6666   -9.5059   -6.4095 C   0  0  0  0  0  0  0  0  0  0  0  0
    5.3479   -8.9435   -6.9075 C   0  0  0  0  0  0  0  0  0  0  0  0
    5.1756   -7.7676   -7.8417 C   0  0  0  0  0  0  0  0  0  0  0  0
    5.9211   -6.5910   -7.6319 C   0  0  0  0  0  0  0  0  0  0  0  0
    5.3606   -5.3373   -7.9272 C   0  0  0  0  0  0  0  0  0  0  0  0
    4.0576   -5.2420   -8.4224 C   0  0  0  0  0  0  0  0  0  0  0  0
    3.3515   -6.4089   -8.7283 C   0  0  0  0  0  0  0  0  0  0  0  0
    1.6067   -6.3176   -9.1648 S   0  0  0  0  0  0  0  0  0  0  0  0
    1.5876   -6.8313  -10.5307 O   0  0  0  0  0  0  0  0  0  0  0  0
    0.9647   -7.1462   -8.1467 O   0  0  0  0  0  0  0  0  0  0  0  0
    1.2927   -4.8938   -9.0497 O   0  5  0  0  0  0  0  0  0  0  0  0
    3.9251   -7.6603   -8.5017 C   0  0  0  0  0  0  0  0  0  0  0  0
    3.2316   -8.7838   -8.7502 F   0  0  0  0  0  0  0  0  0  0  0  0
    4.4088   -8.9047   -5.9082 C   0  0  0  0  0  0  0  0  0  0  0  0
    4.3914   -9.7451   -4.7163 C   0  0  0  0  0  0  0  0  0  0  0  0
    4.6380   -8.9483   -3.6543 C   0  0  0  0  0  0  0  0  0  0  0  0
    4.6604   -7.5711   -4.1077 C   0  0  0  0  0  0  0  0  0  0  0  0
    4.1034   -7.6406   -5.3874 N   0  0  0  0  0  0  0  0  0  0  0  0
    7.7745   -9.8971   -7.2733 C   0  0  0  0  0  0  0  0  0  0  0  0
    8.6897  -10.2966   -6.3698 C   0  0  0  0  0  0  0  0  0  0  0  0
    6.5616   -5.6843   -0.3359 C   0  0  0  0  0  0  0  0  0  0  0  0
    5.7826   -5.2565   -1.3370 C   0  0  0  0  0  0  0  0  0  0  0  0
    3.0195   -5.4239   -3.5893 C   0  0  0  0  0  0  0  0  0  0  0  0
    2.1281   -4.5822   -4.1599 C   0  0  0  0  0  0  0  0  0  0  0  0
   -0.5986   -0.5438    0.6885 C   0  0  0  0  0  0  0  0  0  0  0  0
    0.6169    0.0853    0.4504 C   0  0  0  0  0  0  0  0  0  0  0  0
    1.7368   -0.6514    0.4584 F   0  0  0  0  0  0  0  0  0  0  0  0
    1.8699    3.1360   -0.2660 H   0  0  0  0  0  0  0  0  0  0  0  0
    2.4490    1.6367   -0.9513 H   0  0  0  0  0  0  0  0  0  0  0  0
    2.6528    1.9537    0.7548 H   0  0  0  0  0  0  0  0  0  0  0  0
   -0.4759    3.1979   -0.0591 H   0  0  0  0  0  0  0  0  0  0  0  0
   -2.5958    2.1271    0.4015 H   0  0  0  0  0  0  0  0  0  0  0  0
   -3.8697    0.1633    1.3771 H   0  0  0  0  0  0  0  0  0  0  0  0
   -2.9788   -1.3648   -1.0529 H   0  0  0  0  0  0  0  0  0  0  0  0
   -3.7893    0.1831   -1.0660 H   0  0  0  0  0  0  0  0  0  0  0  0
   -4.6245   -1.2355   -0.4802 H   0  0  0  0  0  0  0  0  0  0  0  0
   -2.1486   -2.0994    1.7395 H   0  0  0  0  0  0  0  0  0  0  0  0
   -3.0459   -1.9322    4.2027 H   0  0  0  0  0  0  0  0  0  0  0  0
   -4.8371   -2.5857    5.6796 H   0  0  0  0  0  0  0  0  0  0  0  0
   -6.9955   -3.1933    4.7499 H   0  0  0  0  0  0  0  0  0  0  0  0
   -7.2525   -3.3694    2.3511 H   0  0  0  0  0  0  0  0  0  0  0  0
   -5.0753   -3.8695   -1.3317 H   0  0  0  0  0  0  0  0  0  0  0  0
   -3.4503   -5.0038    0.5235 H   0  0  0  0  0  0  0  0  0  0  0  0
   -2.8181   -3.3650    0.1364 H   0  0  0  0  0  0  0  0  0  0  0  0
   -2.9041   -5.7842   -1.5061 H   0  0  0  0  0  0  0  0  0  0  0  0
   -1.6204   -4.5013   -1.1995 H   0  0  0  0  0  0  0  0  0  0  0  0
   -3.8804   -4.2007   -3.0267 H   0  0  0  0  0  0  0  0  0  0  0  0
   -2.1432   -4.7010   -3.4071 H   0  0  0  0  0  0  0  0  0  0  0  0
   -3.2119   -2.0511   -2.8110 H   0  0  0  0  0  0  0  0  0  0  0  0
   -2.2392   -2.6976   -4.1980 H   0  0  0  0  0  0  0  0  0  0  0  0
   -1.1349   -2.3366   -1.4826 H   0  0  0  0  0  0  0  0  0  0  0  0
   -1.0659   -1.1111   -2.7613 H   0  0  0  0  0  0  0  0  0  0  0  0
   -0.0145   -3.8712   -3.0910 H   0  0  0  0  0  0  0  0  0  0  0  0
    0.9539   -2.4983   -2.5366 H   0  0  0  0  0  0  0  0  0  0  0  0
   -0.4199   -2.0497   -4.9924 H   0  0  0  0  0  0  0  0  0  0  0  0
    4.2585   -2.3539   -5.4959 H   0  0  0  0  0  0  0  0  0  0  0  0
    5.8568   -4.0921   -4.8454 H   0  0  0  0  0  0  0  0  0  0  0  0
    7.5257   -6.1090    2.0280 H   0  0  0  0  0  0  0  0  0  0  0  0
    7.4936   -6.2666    4.4395 H   0  0  0  0  0  0  0  0  0  0  0  0
    7.3889   -8.4383    5.5180 H   0  0  0  0  0  0  0  0  0  0  0  0
    5.6112  -10.5828   -0.2316 H   0  0  0  0  0  0  0  0  0  0  0  0
    6.2415  -11.8799   -2.4432 H   0  0  0  0  0  0  0  0  0  0  0  0
    8.8731   -8.7452   -1.9611 H   0  0  0  0  0  0  0  0  0  0  0  0
   10.2389  -10.3123   -1.6345 H   0  0  0  0  0  0  0  0  0  0  0  0
   12.5050  -11.0232   -1.2172 H   0  0  0  0  0  0  0  0  0  0  0  0
   13.7129  -12.2185   -2.9535 H   0  0  0  0  0  0  0  0  0  0  0  0
    6.8820   -6.6502   -7.2601 H   0  0  0  0  0  0  0  0  0  0  0  0
    5.9154   -4.4802   -7.7773 H   0  0  0  0  0  0  0  0  0  0  0  0
    3.6201   -4.3177   -8.5612 H   0  0  0  0  0  0  0  0  0  0  0  0
    4.2217  -10.7627   -4.6895 H   0  0  0  0  0  0  0  0  0  0  0  0
    4.7856   -9.2660   -2.6836 H   0  0  0  0  0  0  0  0  0  0  0  0
    3.5909   -6.9320   -5.8395 H   0  0  0  0  0  0  0  0  0  0  0  0
    7.8398   -9.8740   -8.3030 H   0  0  0  0  0  0  0  0  0  0  0  0
    9.6435  -10.6046   -6.6155 H   0  0  0  0  0  0  0  0  0  0  0  0
    6.7892   -5.1443    0.5136 H   0  0  0  0  0  0  0  0  0  0  0  0
    5.2322   -4.3866   -1.4101 H   0  0  0  0  0  0  0  0  0  0  0  0
    2.7130   -6.1516   -2.9248 H   0  0  0  0  0  0  0  0  0  0  0  0
    1.1203   -4.8031   -4.1363 H   0  0  0  0  0  0  0  0  0  0  0  0
   -0.6232   -1.5611    0.8605 H   0  0  0  0  0  0  0  0  0  0  0  0
  1  2  1  0  0  0  0
  1 93  1  0  0  0  0
  1 94  1  0  0  0  0
  1 95  1  0  0  0  0
  2  3  1  0  0  0  0
  2 91  2  0  0  0  0
  3  4  2  0  0  0  0
  3 96  1  0  0  0  0
  4  5  1  0  0  0  0
  4 97  1  0  0  0  0
  5  6  1  0  0  0  0
  5 90  2  0  0  0  0
  6  7  1  0  0  0  0
  6  8  1  0  0  0  0
  6 98  1  1  0  0  0
  7 99  1  0  0  0  0
  7100  1  0  0  0  0
  7101  1  0  0  0  0
  8  9  1  0  0  0  0
  8102  1  0  0  0  0
  9 10  1  0  0  0  0
  9 14  2  0  0  0  0
 10 11  2  0  0  0  0
 10103  1  0  0  0  0
 11 12  1  0  0  0  0
 11104  1  0  0  0  0
 12 13  2  0  0  0  0
 12105  1  0  0  0  0
 13 14  1  0  0  0  0
 13106  1  0  0  0  0
 14 15  1  0  0  0  0
 15 16  2  0  0  0  0
 15 17  1  0  0  0  0
 17 18  1  0  0  0  0
 17107  1  0  0  0  0
 18 19  1  0  0  0  0
 18108  1  0  0  0  0
 18109  1  0  0  0  0
 19 20  1  0  0  0  0
 19110  1  0  0  0  0
 19111  1  0  0  0  0
 20 21  1  0  0  0  0
 20112  1  0  0  0  0
 20113  1  0  0  0  0
 21 22  1  0  0  0  0
 21114  1  0  0  0  0
 21115  1  0  0  0  0
 22 23  1  0  0  0  0
 22116  1  0  0  0  0
 22117  1  0  0  0  0
 23 24  1  0  0  0  0
 23118  1  0  0  0  0
 23119  1  0  0  0  0
 24 25  1  0  0  0  0
 24120  1  0  0  0  0
 25 26  2  0  0  0  0
 25 27  1  0  0  0  0
 27 28  1  0  0  0  0
 27 89  2  0  0  0  0
 28 29  2  0  0  0  0
 28121  1  0  0  0  0
 29 30  1  0  0  0  0
 29122  1  0  0  0  0
 30 31  1  0  0  0  0
 30 88  2  0  0  0  0
 31 32  1  0  0  0  0
 31 82  2  0  0  0  0
 32 33  2  0  0  0  0
 32 87  1  0  0  0  0
 33 34  1  0  0  0  0
 34 35  2  0  0  0  0
 34 86  1  0  0  0  0
 35 36  1  0  0  0  0
 35 47  1  0  0  0  0
 36 37  1  0  0  0  0
 36 45  2  0  0  0  0
 37 38  2  0  0  0  0
 37123  1  0  0  0  0
 38 39  1  0  0  0  0
 38124  1  0  0  0  0
 39 40  2  0  0  0  0
 39125  1  0  0  0  0
 40 41  1  0  0  0  0
 40 45  1  0  0  0  0
 41 42  2  0  0  0  0
 41 43  2  0  0  0  0
 41 44  1  0  0  0  0
 45 46  1  0  0  0  0
 47 48  2  0  0  0  0
 47 51  1  0  0  0  0
 48 49  1  0  0  0  0
 48126  1  0  0  0  0
 49 50  2  0  0  0  0
 49127  1  0  0  0  0
 50 51  1  0  0  0  0
 50 52  1  0  0  0  0
 51128  1  0  0  0  0
 52 53  1  0  0  0  0
 52 64  2  0  0  0  0
 53 54  1  0  0  0  0
 53 62  2  0  0  0  0
 54 55  2  0  0  0  0
 54129  1  0  0  0  0
 55 56  1  0  0  0  0
 55130  1  0  0  0  0
 56 57  2  0  0  0  0
 56131  1  0  0  0  0
 57 58  1  0  0  0  0
 57 62  1  0  0  0  0
 58 59  2  0  0  0  0
 58 60  2  0  0  0  0
 58 61  1  0  0  0  0
 62 63  1  0  0  0  0
 64 65  1  0  0  0  0
 64 85  1  0  0  0  0
 65 66  2  0  0  0  0
 66 67  1  0  0  0  0
 66 84  1  0  0  0  0
 67 68  1  0  0  0  0
 67 79  2  0  0  0  0
 68 69  1  0  0  0  0
 68 77  2  0  0  0  0
 69 70  2  0  0  0  0
 69132  1  0  0  0  0
 70 71  1  0  0  0  0
 70133  1  0  0  0  0
 71 72  2  0  0  0  0
 71134  1  0  0  0  0
 72 73  1  0  0  0  0
 72 77  1  0  0  0  0
 73 74  2  0  0  0  0
 73 75  2  0  0  0  0
 73 76  1  0  0  0  0
 77 78  1  0  0  0  0
 79 80  1  0  0  0  0
 79 83  1  0  0  0  0
 80 81  2  0  0  0  0
 80135  1  0  0  0  0
 81 82  1  0  0  0  0
 81136  1  0  0  0  0
 82 83  1  0  0  0  0
 83137  1  0  0  0  0
 84 85  2  0  0  0  0
 84138  1  0  0  0  0
 85139  1  0  0  0  0
 86 87  2  0  0  0  0
 86140  1  0  0  0  0
 87141  1  0  0  0  0
 88 89  1  0  0  0  0
 88142  1  0  0  0  0
 89143  1  0  0  0  0
 90 91  1  0  0  0  0
 90144  1  0  0  0  0
 91 92  1  0  0  0  0
M  CHG  3  44  -1  61  -1  76  -1
M  END
$$$$
