6_1_5870
 OpenBabel04152301373D

130139  0  0  1  0  0  0  0  0999 V2000
   -2.3936   -3.0414    6.1617 C   0  0  0  0  0  0  0  0  0  0  0  0
   -3.0226   -2.3635    4.9857 C   0  0  0  0  0  0  0  0  0  0  0  0
   -3.2376   -3.0423    3.7865 C   0  0  0  0  0  0  0  0  0  0  0  0
   -3.7987   -2.3813    2.6876 C   0  0  0  0  0  0  0  0  0  0  0  0
   -4.1239   -1.0148    2.7383 C   0  0  0  0  0  0  0  0  0  0  0  0
   -4.6155   -0.2231    1.5139 C   0  0  1  0  0  0  0  0  0  0  0  0
   -6.1038    0.1254    1.6911 C   0  0  0  0  0  0  0  0  0  0  0  0
   -3.9458    1.0500    1.5061 O   0  0  0  0  0  0  0  0  0  0  0  0
   -4.4224   -0.9508    0.1395 C   0  0  2  0  0  0  0  0  0  0  0  0
   -3.2827   -1.7144    0.1311 F   0  0  0  0  0  0  0  0  0  0  0  0
   -4.4010   -0.0031   -1.0568 C   0  0  0  0  0  0  0  0  0  0  0  0
   -5.4089    0.1941   -1.7403 O   0  0  0  0  0  0  0  0  0  0  0  0
   -3.2245    0.6172   -1.3963 N   0  0  0  0  0  0  0  0  0  0  0  0
   -1.9590    0.5855   -0.6732 C   0  0  0  0  0  0  0  0  0  0  0  0
   -0.8337   -0.0808   -1.4656 C   0  0  0  0  0  0  0  0  0  0  0  0
   -0.4760    0.6017   -2.7875 C   0  0  0  0  0  0  0  0  0  0  0  0
   -0.0826    2.0565   -2.6196 C   0  0  0  0  0  0  0  0  0  0  0  0
    1.1993    2.2277   -1.9429 N   0  0  0  0  0  0  0  0  0  0  0  0
    1.9982    3.3650   -1.9487 C   0  0  0  0  0  0  0  0  0  0  0  0
    3.1854    3.3221   -1.7215 O   0  0  0  0  0  0  0  0  0  0  0  0
    1.3205    4.6415   -2.2537 C   0  0  0  0  0  0  0  0  0  0  0  0
    1.9188    5.6515   -3.0144 C   0  0  0  0  0  0  0  0  0  0  0  0
    1.1961    6.8193   -3.2641 C   0  0  0  0  0  0  0  0  0  0  0  0
   -0.1311    6.8901   -2.8253 C   0  0  0  0  0  0  0  0  0  0  0  0
   -0.9785    8.0672   -2.9006 C   0  0  0  0  0  0  0  0  0  0  0  0
   -1.3540    8.6280   -4.1962 C   0  0  0  0  0  0  0  0  0  0  0  0
   -1.5546    9.8766   -4.4207 N   0  0  0  0  0  0  0  0  0  0  0  0
   -2.2116    9.9601   -5.6283 C   0  0  0  0  0  0  0  0  0  0  0  0
   -3.0442   11.0194   -5.8565 C   0  0  0  0  0  0  0  0  0  0  0  0
   -4.0854   11.0452   -6.9637 C   0  0  0  0  0  0  0  0  0  0  0  0
   -3.9320   10.3136   -8.1622 C   0  0  0  0  0  0  0  0  0  0  0  0
   -4.9535   10.1999   -9.1170 C   0  0  0  0  0  0  0  0  0  0  0  0
   -6.1411   10.8911   -8.9421 C   0  0  0  0  0  0  0  0  0  0  0  0
   -6.2877   11.7067   -7.8207 C   0  0  0  0  0  0  0  0  0  0  0  0
   -7.7807   12.6888   -7.6288 S   0  0  0  0  0  0  0  0  0  0  0  0
   -8.3843   12.1328   -6.4224 O   0  0  0  0  0  0  0  0  0  0  0  0
   -7.2707   14.0530   -7.5433 O   0  0  0  0  0  0  0  0  0  0  0  0
   -8.5270   12.4078   -8.8575 O   0  5  0  0  0  0  0  0  0  0  0  0
   -5.2857   11.7854   -6.8473 C   0  0  0  0  0  0  0  0  0  0  0  0
   -5.4858   12.5841   -5.7916 F   0  0  0  0  0  0  0  0  0  0  0  0
   -3.0600   11.9022   -4.6888 C   0  0  0  0  0  0  0  0  0  0  0  0
   -3.9529   12.0088   -3.6338 C   0  0  0  0  0  0  0  0  0  0  0  0
   -3.2739   12.6147   -2.5448 C   0  0  0  0  0  0  0  0  0  0  0  0
   -1.9789   12.9010   -2.9446 C   0  0  0  0  0  0  0  0  0  0  0  0
   -1.8893   12.5323   -4.2745 N   0  0  0  0  0  0  0  0  0  0  0  0
   -0.8816   13.5987   -2.2817 C   0  0  0  0  0  0  0  0  0  0  0  0
   -0.5893   15.0144   -2.7167 C   0  0  0  0  0  0  0  0  0  0  0  0
   -1.4635   15.6294   -3.6509 C   0  0  0  0  0  0  0  0  0  0  0  0
   -1.2224   16.8954   -4.1848 C   0  0  0  0  0  0  0  0  0  0  0  0
   -0.1436   17.6305   -3.7231 C   0  0  0  0  0  0  0  0  0  0  0  0
    0.7133   17.0606   -2.7795 C   0  0  0  0  0  0  0  0  0  0  0  0
    1.9647   18.0581   -1.9746 S   0  0  0  0  0  0  0  0  0  0  0  0
    1.5298   18.0370   -0.5796 O   0  0  0  0  0  0  0  0  0  0  0  0
    3.2086   17.3576   -2.2750 O   0  0  0  0  0  0  0  0  0  0  0  0
    1.8318   19.3609   -2.6272 O   0  5  0  0  0  0  0  0  0  0  0  0
    0.5465   15.7465   -2.3494 C   0  0  0  0  0  0  0  0  0  0  0  0
    1.5214   15.1754   -1.6309 F   0  0  0  0  0  0  0  0  0  0  0  0
   -0.3149   12.9651   -1.2117 C   0  0  0  0  0  0  0  0  0  0  0  0
   -0.3891   11.6103   -1.0198 N   0  0  0  0  0  0  0  0  0  0  0  0
    0.1117   11.3203    0.1526 C   0  0  0  0  0  0  0  0  0  0  0  0
    0.0292    9.9589    0.7937 C   0  0  0  0  0  0  0  0  0  0  0  0
    1.1732    9.0009    1.0185 C   0  0  0  0  0  0  0  0  0  0  0  0
    2.1698    8.8112    0.0443 C   0  0  0  0  0  0  0  0  0  0  0  0
    2.8204    7.5702   -0.0689 C   0  0  0  0  0  0  0  0  0  0  0  0
    2.4501    6.4984    0.7486 C   0  0  0  0  0  0  0  0  0  0  0  0
    1.5050    6.6981    1.7582 C   0  0  0  0  0  0  0  0  0  0  0  0
    0.7651    5.2657    2.5701 S   0  0  0  0  0  0  0  0  0  0  0  0
    1.5054    5.1917    3.8250 O   0  0  0  0  0  0  0  0  0  0  0  0
   -0.6515    5.6046    2.6727 O   0  0  0  0  0  0  0  0  0  0  0  0
    1.0207    4.1674    1.6353 O   0  5  0  0  0  0  0  0  0  0  0  0
    0.9417    7.9587    1.9508 C   0  0  0  0  0  0  0  0  0  0  0  0
    0.0519    8.1701    2.9347 F   0  0  0  0  0  0  0  0  0  0  0  0
   -1.0987    9.3149    0.3644 C   0  0  0  0  0  0  0  0  0  0  0  0
   -2.3087    9.9393   -0.1592 C   0  0  0  0  0  0  0  0  0  0  0  0
   -2.4733    9.5178   -1.4308 C   0  0  0  0  0  0  0  0  0  0  0  0
   -1.4563    8.5252   -1.7216 C   0  0  0  0  0  0  0  0  0  0  0  0
   -0.9299    8.2163   -0.4709 N   0  0  0  0  0  0  0  0  0  0  0  0
    0.6885   12.4736    0.8289 C   0  0  0  0  0  0  0  0  0  0  0  0
    0.3923   13.4546   -0.0395 C   0  0  0  0  0  0  0  0  0  0  0  0
   -1.9971    8.6771   -6.2606 C   0  0  0  0  0  0  0  0  0  0  0  0
   -1.4973    7.7958   -5.3868 C   0  0  0  0  0  0  0  0  0  0  0  0
   -0.7336    5.8336   -2.1478 C   0  0  0  0  0  0  0  0  0  0  0  0
    0.0457    4.8034   -1.7246 C   0  0  0  0  0  0  0  0  0  0  0  0
   -3.9465   -0.3576    3.9717 C   0  0  0  0  0  0  0  0  0  0  0  0
   -3.4048   -1.0260    5.0680 C   0  0  0  0  0  0  0  0  0  0  0  0
   -3.2392   -0.3585    6.2186 F   0  0  0  0  0  0  0  0  0  0  0  0
   -2.1707   -4.0573    5.9106 H   0  0  0  0  0  0  0  0  0  0  0  0
   -3.0703   -3.0190    6.9903 H   0  0  0  0  0  0  0  0  0  0  0  0
   -1.4900   -2.5327    6.4254 H   0  0  0  0  0  0  0  0  0  0  0  0
   -2.9812   -4.0389    3.7088 H   0  0  0  0  0  0  0  0  0  0  0  0
   -3.9779   -2.9099    1.8195 H   0  0  0  0  0  0  0  0  0  0  0  0
   -6.2445    0.6230    2.6279 H   0  0  0  0  0  0  0  0  0  0  0  0
   -6.6850   -0.7728    1.6735 H   0  0  0  0  0  0  0  0  0  0  0  0
   -6.4168    0.7684    0.8952 H   0  0  0  0  0  0  0  0  0  0  0  0
   -4.0740    1.4880    2.3620 H   0  0  0  0  0  0  0  0  0  0  0  0
   -5.2815   -1.5802    0.0358 H   0  0  0  0  0  0  0  0  0  0  0  0
   -3.2367    1.1462   -2.2265 H   0  0  0  0  0  0  0  0  0  0  0  0
   -2.1009    0.0437    0.2385 H   0  0  0  0  0  0  0  0  0  0  0  0
   -1.6673    1.5994   -0.4946 H   0  0  0  0  0  0  0  0  0  0  0  0
   -1.1309   -1.0858   -1.6816 H   0  0  0  0  0  0  0  0  0  0  0  0
    0.0404   -0.0165   -0.8519 H   0  0  0  0  0  0  0  0  0  0  0  0
   -1.3248    0.5514   -3.4371 H   0  0  0  0  0  0  0  0  0  0  0  0
    0.3703    0.0875   -3.1928 H   0  0  0  0  0  0  0  0  0  0  0  0
   -0.8392    2.5500   -2.0461 H   0  0  0  0  0  0  0  0  0  0  0  0
    0.0147    2.4762   -3.5990 H   0  0  0  0  0  0  0  0  0  0  0  0
    1.5328    1.4572   -1.4287 H   0  0  0  0  0  0  0  0  0  0  0  0
    2.8755    5.5356   -3.3837 H   0  0  0  0  0  0  0  0  0  0  0  0
    1.6306    7.6126   -3.7610 H   0  0  0  0  0  0  0  0  0  0  0  0
   -3.0313    9.8433   -8.3429 H   0  0  0  0  0  0  0  0  0  0  0  0
   -4.8204    9.6025   -9.9480 H   0  0  0  0  0  0  0  0  0  0  0  0
   -6.9049   10.8038   -9.6305 H   0  0  0  0  0  0  0  0  0  0  0  0
   -4.9381   11.7016   -3.6393 H   0  0  0  0  0  0  0  0  0  0  0  0
   -3.6761   12.8088   -1.6144 H   0  0  0  0  0  0  0  0  0  0  0  0
   -1.1061   12.6931   -4.8489 H   0  0  0  0  0  0  0  0  0  0  0  0
   -2.3108   15.1198   -3.9467 H   0  0  0  0  0  0  0  0  0  0  0  0
   -1.8412   17.2799   -4.9158 H   0  0  0  0  0  0  0  0  0  0  0  0
    0.0249   18.5871   -4.0719 H   0  0  0  0  0  0  0  0  0  0  0  0
    2.4241    9.5852   -0.5892 H   0  0  0  0  0  0  0  0  0  0  0  0
    3.5768    7.4495   -0.7605 H   0  0  0  0  0  0  0  0  0  0  0  0
    2.8715    5.5670    0.6075 H   0  0  0  0  0  0  0  0  0  0  0  0
   -2.9283   10.5876    0.3515 H   0  0  0  0  0  0  0  0  0  0  0  0
   -3.2001    9.8463   -2.0857 H   0  0  0  0  0  0  0  0  0  0  0  0
   -0.5085    7.3627   -0.2196 H   0  0  0  0  0  0  0  0  0  0  0  0
    1.1887   12.5237    1.7302 H   0  0  0  0  0  0  0  0  0  0  0  0
    0.6393   14.4456    0.1089 H   0  0  0  0  0  0  0  0  0  0  0  0
   -2.2017    8.4697   -7.2506 H   0  0  0  0  0  0  0  0  0  0  0  0
   -1.2735    6.7971   -5.5189 H   0  0  0  0  0  0  0  0  0  0  0  0
   -1.7503    5.8326   -1.9706 H   0  0  0  0  0  0  0  0  0  0  0  0
   -0.3078    4.1443   -1.0135 H   0  0  0  0  0  0  0  0  0  0  0  0
   -4.2216    0.6327    4.0647 H   0  0  0  0  0  0  0  0  0  0  0  0
  1  2  1  0  0  0  0
  1 87  1  0  0  0  0
  1 88  1  0  0  0  0
  1 89  1  0  0  0  0
  2  3  1  0  0  0  0
  2 85  2  0  0  0  0
  3  4  2  0  0  0  0
  3 90  1  0  0  0  0
  4  5  1  0  0  0  0
  4 91  1  0  0  0  0
  5  6  1  0  0  0  0
  5 84  2  0  0  0  0
  6  7  1  0  0  0  0
  6  8  1  6  0  0  0
  7 92  1  0  0  0  0
  7 93  1  0  0  0  0
  7 94  1  0  0  0  0
  8 95  1  0  0  0  0
  9 11  1  0  0  0  0
  9 10  1  0  0  0  0
  9  6  1  0  0  0  0
  9 96  1  6  0  0  0
 11 12  2  0  0  0  0
 11 13  1  0  0  0  0
 13 14  1  0  0  0  0
 13 97  1  0  0  0  0
 14 15  1  0  0  0  0
 14 98  1  0  0  0  0
 14 99  1  0  0  0  0
 15 16  1  0  0  0  0
 15100  1  0  0  0  0
 15101  1  0  0  0  0
 16 17  1  0  0  0  0
 16102  1  0  0  0  0
 16103  1  0  0  0  0
 17 18  1  0  0  0  0
 17104  1  0  0  0  0
 17105  1  0  0  0  0
 18 19  1  0  0  0  0
 18106  1  0  0  0  0
 19 20  2  0  0  0  0
 19 21  1  0  0  0  0
 21 22  1  0  0  0  0
 21 83  2  0  0  0  0
 22 23  2  0  0  0  0
 22107  1  0  0  0  0
 23 24  1  0  0  0  0
 23108  1  0  0  0  0
 24 25  1  0  0  0  0
 24 82  2  0  0  0  0
 25 26  1  0  0  0  0
 25 76  2  0  0  0  0
 26 27  2  0  0  0  0
 26 81  1  0  0  0  0
 27 28  1  0  0  0  0
 28 29  2  0  0  0  0
 28 80  1  0  0  0  0
 29 30  1  0  0  0  0
 29 41  1  0  0  0  0
 30 31  1  0  0  0  0
 30 39  2  0  0  0  0
 31 32  2  0  0  0  0
 31109  1  0  0  0  0
 32 33  1  0  0  0  0
 32110  1  0  0  0  0
 33 34  2  0  0  0  0
 33111  1  0  0  0  0
 34 35  1  0  0  0  0
 34 39  1  0  0  0  0
 35 36  2  0  0  0  0
 35 37  2  0  0  0  0
 35 38  1  0  0  0  0
 39 40  1  0  0  0  0
 41 42  2  0  0  0  0
 41 45  1  0  0  0  0
 42 43  1  0  0  0  0
 42112  1  0  0  0  0
 43 44  2  0  0  0  0
 43113  1  0  0  0  0
 44 45  1  0  0  0  0
 44 46  1  0  0  0  0
 45114  1  0  0  0  0
 46 47  1  0  0  0  0
 46 58  2  0  0  0  0
 47 48  1  0  0  0  0
 47 56  2  0  0  0  0
 48 49  2  0  0  0  0
 48115  1  0  0  0  0
 49 50  1  0  0  0  0
 49116  1  0  0  0  0
 50 51  2  0  0  0  0
 50117  1  0  0  0  0
 51 52  1  0  0  0  0
 51 56  1  0  0  0  0
 52 53  2  0  0  0  0
 52 54  2  0  0  0  0
 52 55  1  0  0  0  0
 56 57  1  0  0  0  0
 58 59  1  0  0  0  0
 58 79  1  0  0  0  0
 59 60  2  0  0  0  0
 60 61  1  0  0  0  0
 60 78  1  0  0  0  0
 61 62  1  0  0  0  0
 61 73  2  0  0  0  0
 62 63  1  0  0  0  0
 62 71  2  0  0  0  0
 63 64  2  0  0  0  0
 63118  1  0  0  0  0
 64 65  1  0  0  0  0
 64119  1  0  0  0  0
 65 66  2  0  0  0  0
 65120  1  0  0  0  0
 66 67  1  0  0  0  0
 66 71  1  0  0  0  0
 67 68  2  0  0  0  0
 67 69  2  0  0  0  0
 67 70  1  0  0  0  0
 71 72  1  0  0  0  0
 73 74  1  0  0  0  0
 73 77  1  0  0  0  0
 74 75  2  0  0  0  0
 74121  1  0  0  0  0
 75 76  1  0  0  0  0
 75122  1  0  0  0  0
 76 77  1  0  0  0  0
 77123  1  0  0  0  0
 78 79  2  0  0  0  0
 78124  1  0  0  0  0
 79125  1  0  0  0  0
 80 81  2  0  0  0  0
 80126  1  0  0  0  0
 81127  1  0  0  0  0
 82 83  1  0  0  0  0
 82128  1  0  0  0  0
 83129  1  0  0  0  0
 84 85  1  0  0  0  0
 84130  1  0  0  0  0
 85 86  1  0  0  0  0
M  CHG  3  38  -1  55  -1  70  -1
M  END
$$$$
