6_1_433
 OpenBabel04152301373D

168179  0  0  1  0  0  0  0  0999 V2000
   -5.7745   13.5142   -8.4909 C   0  0  0  0  0  0  0  0  0  0  0  0
   -6.3355   12.1209   -8.5720 C   0  0  0  0  0  0  0  0  0  0  0  0
   -5.7236   11.0295   -9.0855 C   0  0  0  0  0  0  0  0  0  0  0  0
   -4.3863   11.1826   -9.7235 C   0  0  0  0  0  0  0  0  0  0  0  0
   -6.4228    9.6741   -9.1780 C   0  0  2  0  0  0  0  0  0  0  0  0
   -6.9454    9.0907   -7.8855 C   0  0  0  0  0  0  0  0  0  0  0  0
   -7.3745    7.8118   -7.8034 C   0  0  0  0  0  0  0  0  0  0  0  0
   -7.3732    6.8098   -8.9534 C   0  0  2  0  0  0  0  0  0  0  0  0
   -6.4971    5.5587   -8.7365 C   0  0  0  0  0  0  0  0  0  0  0  0
   -6.4465    4.5830   -9.9202 C   0  0  2  0  0  0  0  0  0  0  0  0
   -5.3719    3.5184   -9.6653 C   0  0  0  0  0  0  0  0  0  0  0  0
   -6.1430    5.2897  -11.2471 C   0  0  0  0  0  0  0  0  0  0  0  0
   -7.0046    6.5283  -11.4485 C   0  0  2  0  0  0  0  0  0  0  0  0
   -6.7374    7.2023  -12.7909 C   0  0  0  0  0  0  0  0  0  0  0  0
   -6.9871    7.5128  -10.2613 C   0  0  2  0  0  0  0  0  0  0  0  0
   -5.7972    8.5272  -10.0309 C   0  0  2  0  0  0  0  0  0  0  0  0
   -4.4028    7.9389   -9.5686 C   0  0  0  0  0  0  0  0  0  0  0  0
   -3.7578    7.2795  -10.3988 O   0  0  0  0  0  0  0  0  0  0  0  0
   -3.7471    8.1634   -8.2312 C   0  0  0  0  0  0  0  0  0  0  0  0
   -2.5302    8.7109   -7.9512 C   0  0  0  0  0  0  0  0  0  0  0  0
   -1.5603    9.3601   -8.7048 N   0  0  0  0  0  0  0  0  0  0  0  0
   -1.4403    9.6331  -10.1209 C   0  0  0  0  0  0  0  0  0  0  0  0
   -1.1996   11.1354  -10.3547 C   0  0  0  0  0  0  0  0  0  0  0  0
    0.1319   11.6819   -9.8480 C   0  0  0  0  0  0  0  0  0  0  0  0
    1.3197   11.1773  -10.6470 C   0  0  0  0  0  0  0  0  0  0  0  0
    1.3118   11.7006  -12.0113 N   0  0  0  0  0  0  0  0  0  0  0  0
    1.8928   12.8398  -12.5224 C   0  0  0  0  0  0  0  0  0  0  0  0
    1.5642   13.2577  -13.6287 O   0  0  0  0  0  0  0  0  0  0  0  0
    2.8969   13.5679  -11.7196 C   0  0  0  0  0  0  0  0  0  0  0  0
    2.8486   14.9618  -11.6285 C   0  0  0  0  0  0  0  0  0  0  0  0
    3.7212   15.6273  -10.7603 C   0  0  0  0  0  0  0  0  0  0  0  0
    4.5892   14.8956   -9.9341 C   0  0  0  0  0  0  0  0  0  0  0  0
    5.4596   15.5268   -8.9068 C   0  0  0  0  0  0  0  0  0  0  0  0
    6.9399   15.2408   -8.9194 C   0  0  0  0  0  0  0  0  0  0  0  0
    7.8323   15.4586   -7.9904 N   0  0  0  0  0  0  0  0  0  0  0  0
    9.0009   14.8570   -8.4431 C   0  0  0  0  0  0  0  0  0  0  0  0
   10.2277   14.8490   -7.8711 C   0  0  0  0  0  0  0  0  0  0  0  0
   11.3258   14.1047   -8.5826 C   0  0  0  0  0  0  0  0  0  0  0  0
   11.8660   14.6396   -9.7698 C   0  0  0  0  0  0  0  0  0  0  0  0
   12.8766   13.9695  -10.4565 C   0  0  0  0  0  0  0  0  0  0  0  0
   13.3908   12.7856   -9.9358 C   0  0  0  0  0  0  0  0  0  0  0  0
   12.8827   12.2593   -8.7367 C   0  0  0  0  0  0  0  0  0  0  0  0
   13.6582   10.7665   -8.1050 S   0  0  0  0  0  0  0  0  0  0  0  0
   13.0624    9.7400   -8.9583 O   0  0  0  0  0  0  0  0  0  0  0  0
   15.0772   11.0208   -8.3586 O   0  0  0  0  0  0  0  0  0  0  0  0
   13.3008   10.7017   -6.6948 O   0  5  0  0  0  0  0  0  0  0  0  0
   11.8457   12.9014   -8.0676 C   0  0  0  0  0  0  0  0  0  0  0  0
   11.3038   12.3929   -6.9515 F   0  0  0  0  0  0  0  0  0  0  0  0
   10.5537   15.5807   -6.6797 C   0  0  0  0  0  0  0  0  0  0  0  0
   11.7957   15.7820   -6.1063 C   0  0  0  0  0  0  0  0  0  0  0  0
   11.6253   16.5869   -4.9746 C   0  0  0  0  0  0  0  0  0  0  0  0
   10.2763   16.8765   -4.8403 C   0  0  0  0  0  0  0  0  0  0  0  0
    9.6321   16.2537   -5.8933 N   0  0  0  0  0  0  0  0  0  0  0  0
    9.6230   17.6424   -3.8111 C   0  0  0  0  0  0  0  0  0  0  0  0
   10.4787   18.1426   -2.6813 C   0  0  0  0  0  0  0  0  0  0  0  0
   10.4791   17.4407   -1.4606 C   0  0  0  0  0  0  0  0  0  0  0  0
   11.3281   17.8256   -0.4250 C   0  0  0  0  0  0  0  0  0  0  0  0
   12.2073   18.8892   -0.6162 C   0  0  0  0  0  0  0  0  0  0  0  0
   12.2216   19.5877   -1.8350 C   0  0  0  0  0  0  0  0  0  0  0  0
   13.4468   20.8877   -2.0249 S   0  0  0  0  0  0  0  0  0  0  0  0
   12.8599   21.9678   -1.2341 O   0  0  0  0  0  0  0  0  0  0  0  0
   14.6415   20.2804   -1.4373 O   0  0  0  0  0  0  0  0  0  0  0  0
   13.5423   21.1387   -3.4569 O   0  5  0  0  0  0  0  0  0  0  0  0
   11.3511   19.2331   -2.8586 C   0  0  0  0  0  0  0  0  0  0  0  0
   11.3175   19.8974   -4.0230 F   0  0  0  0  0  0  0  0  0  0  0  0
    8.2941   17.9031   -3.7562 C   0  0  0  0  0  0  0  0  0  0  0  0
    7.2917   17.5332   -4.6447 N   0  0  0  0  0  0  0  0  0  0  0  0
    6.1710   17.9749   -4.1266 C   0  0  0  0  0  0  0  0  0  0  0  0
    4.7751   17.8827   -4.6796 C   0  0  0  0  0  0  0  0  0  0  0  0
    3.6196   18.4884   -3.9597 C   0  0  0  0  0  0  0  0  0  0  0  0
    3.5106   19.8918   -3.9102 C   0  0  0  0  0  0  0  0  0  0  0  0
    2.4276   20.5009   -3.2756 C   0  0  0  0  0  0  0  0  0  0  0  0
    1.4198   19.7135   -2.7256 C   0  0  0  0  0  0  0  0  0  0  0  0
    1.5060   18.3143   -2.7887 C   0  0  0  0  0  0  0  0  0  0  0  0
    0.1047   17.3655   -2.1824 S   0  0  0  0  0  0  0  0  0  0  0  0
    0.3626   17.3309   -0.7461 O   0  0  0  0  0  0  0  0  0  0  0  0
   -1.0316   18.1957   -2.5849 O   0  0  0  0  0  0  0  0  0  0  0  0
    0.1792   16.0870   -2.8786 O   0  5  0  0  0  0  0  0  0  0  0  0
    2.6084   17.7013   -3.3766 C   0  0  0  0  0  0  0  0  0  0  0  0
    2.7352   16.3671   -3.4164 F   0  0  0  0  0  0  0  0  0  0  0  0
    4.5873   17.3073   -5.8837 C   0  0  0  0  0  0  0  0  0  0  0  0
    3.2979   17.1303   -6.5421 C   0  0  0  0  0  0  0  0  0  0  0  0
    3.4816   16.4636   -7.6930 C   0  0  0  0  0  0  0  0  0  0  0  0
    4.9110   16.2009   -7.8760 C   0  0  0  0  0  0  0  0  0  0  0  0
    5.4915   16.7521   -6.7600 N   0  0  0  0  0  0  0  0  0  0  0  0
    6.3342   18.6625   -2.8375 C   0  0  0  0  0  0  0  0  0  0  0  0
    7.6515   18.6303   -2.6803 C   0  0  0  0  0  0  0  0  0  0  0  0
    8.6976   14.2420   -9.7158 C   0  0  0  0  0  0  0  0  0  0  0  0
    7.4723   14.5536  -10.1101 C   0  0  0  0  0  0  0  0  0  0  0  0
    4.6478   13.5013  -10.0781 C   0  0  0  0  0  0  0  0  0  0  0  0
    3.8755   12.8563  -11.0302 C   0  0  0  0  0  0  0  0  0  0  0  0
   -2.1656    8.5596   -6.4506 C   0  0  2  0  0  0  0  0  0  0  0  0
   -0.9431    7.6499   -6.2433 C   0  0  0  0  0  0  0  0  0  0  0  0
   -0.5114    7.3293   -4.7884 C   0  0  2  0  0  0  0  0  0  0  0  0
   -1.2192    8.0811   -3.6529 C   0  0  0  0  0  0  0  0  0  0  0  0
    0.8882    7.6555   -4.7064 O   0  0  0  0  0  0  0  0  0  0  0  0
   -0.7110    5.8147   -4.5424 C   0  0  0  0  0  0  0  0  0  0  0  0
   -1.6517    5.2891   -3.9645 O   0  0  0  0  0  0  0  0  0  0  0  0
    0.2600    5.0439   -5.0776 O   0  5  0  0  0  0  0  0  0  0  0  0
   -3.3456    7.9709   -5.9483 N   0  0  0  0  0  0  0  0  0  0  0  0
   -4.1946    7.5931   -6.9322 C   0  0  0  0  0  0  0  0  0  0  0  0
   -5.1194    6.8463   -6.6674 O   0  0  0  0  0  0  0  0  0  0  0  0
   -6.4932   14.1620   -8.0340 H   0  0  0  0  0  0  0  0  0  0  0  0
   -5.5519   13.8670   -9.4762 H   0  0  0  0  0  0  0  0  0  0  0  0
   -4.8794   13.5047   -7.9048 H   0  0  0  0  0  0  0  0  0  0  0  0
   -7.2869   11.9834   -8.1965 H   0  0  0  0  0  0  0  0  0  0  0  0
   -4.0314   12.1807   -9.5729 H   0  0  0  0  0  0  0  0  0  0  0  0
   -4.4671   10.9872  -10.7724 H   0  0  0  0  0  0  0  0  0  0  0  0
   -3.6998   10.4898   -9.2835 H   0  0  0  0  0  0  0  0  0  0  0  0
   -7.2372   10.0458   -9.7642 H   0  0  0  0  0  0  0  0  0  0  0  0
   -6.9754    9.6852   -7.0425 H   0  0  0  0  0  0  0  0  0  0  0  0
   -7.7311    7.4877   -6.8908 H   0  0  0  0  0  0  0  0  0  0  0  0
   -8.3751    6.4376   -9.0049 H   0  0  0  0  0  0  0  0  0  0  0  0
   -6.8789    5.0303   -7.8881 H   0  0  0  0  0  0  0  0  0  0  0  0
   -5.4973    5.9159   -8.6032 H   0  0  0  0  0  0  0  0  0  0  0  0
   -7.4139    4.1331  -10.0009 H   0  0  0  0  0  0  0  0  0  0  0  0
   -4.4143    3.9895   -9.5881 H   0  0  0  0  0  0  0  0  0  0  0  0
   -5.3617    2.8206  -10.4764 H   0  0  0  0  0  0  0  0  0  0  0  0
   -5.5901    3.0025   -8.7536 H   0  0  0  0  0  0  0  0  0  0  0  0
   -6.3267    4.6076  -12.0508 H   0  0  0  0  0  0  0  0  0  0  0  0
   -5.1195    5.6010  -11.2271 H   0  0  0  0  0  0  0  0  0  0  0  0
   -8.0129    6.1714  -11.4782 H   0  0  0  0  0  0  0  0  0  0  0  0
   -5.7354    7.5772  -12.8086 H   0  0  0  0  0  0  0  0  0  0  0  0
   -7.4236    8.0120  -12.9263 H   0  0  0  0  0  0  0  0  0  0  0  0
   -6.8658    6.4904  -13.5793 H   0  0  0  0  0  0  0  0  0  0  0  0
   -7.7292    8.2016  -10.6075 H   0  0  0  0  0  0  0  0  0  0  0  0
   -5.4302    8.9020  -10.9635 H   0  0  0  0  0  0  0  0  0  0  0  0
   -0.8069    9.7013   -8.1708 H   0  0  0  0  0  0  0  0  0  0  0  0
   -2.3424    9.3387  -10.6152 H   0  0  0  0  0  0  0  0  0  0  0  0
   -0.6116    9.0817  -10.5135 H   0  0  0  0  0  0  0  0  0  0  0  0
   -1.9834   11.6736   -9.8639 H   0  0  0  0  0  0  0  0  0  0  0  0
   -1.1813   11.2647  -11.4167 H   0  0  0  0  0  0  0  0  0  0  0  0
    0.2563   11.3858   -8.8273 H   0  0  0  0  0  0  0  0  0  0  0  0
    0.1030   12.7463   -9.9530 H   0  0  0  0  0  0  0  0  0  0  0  0
    1.2839   10.1086  -10.6848 H   0  0  0  0  0  0  0  0  0  0  0  0
    2.2141   11.5130  -10.1650 H   0  0  0  0  0  0  0  0  0  0  0  0
    0.8157   11.1560  -12.6644 H   0  0  0  0  0  0  0  0  0  0  0  0
    2.1740   15.4965  -12.1977 H   0  0  0  0  0  0  0  0  0  0  0  0
    3.7268   16.6588  -10.7272 H   0  0  0  0  0  0  0  0  0  0  0  0
   11.5093   15.5368  -10.1342 H   0  0  0  0  0  0  0  0  0  0  0  0
   13.2411   14.3483  -11.3446 H   0  0  0  0  0  0  0  0  0  0  0  0
   14.1488   12.2922  -10.4329 H   0  0  0  0  0  0  0  0  0  0  0  0
   12.6916   15.4046   -6.4525 H   0  0  0  0  0  0  0  0  0  0  0  0
   12.3770   16.9104   -4.3459 H   0  0  0  0  0  0  0  0  0  0  0  0
    8.6623   16.2839   -6.0598 H   0  0  0  0  0  0  0  0  0  0  0  0
    9.8463   16.6357   -1.3321 H   0  0  0  0  0  0  0  0  0  0  0  0
   11.3058   17.3261    0.4778 H   0  0  0  0  0  0  0  0  0  0  0  0
   12.8514   19.1654    0.1414 H   0  0  0  0  0  0  0  0  0  0  0  0
    4.2399   20.4760   -4.3482 H   0  0  0  0  0  0  0  0  0  0  0  0
    2.3739   21.5297   -3.2142 H   0  0  0  0  0  0  0  0  0  0  0  0
    0.6079   20.1596   -2.2707 H   0  0  0  0  0  0  0  0  0  0  0  0
    2.3904   17.4639   -6.1814 H   0  0  0  0  0  0  0  0  0  0  0  0
    2.7338   16.1809   -8.3456 H   0  0  0  0  0  0  0  0  0  0  0  0
    6.4632   16.7502   -6.6018 H   0  0  0  0  0  0  0  0  0  0  0  0
    5.6137   19.0646   -2.2177 H   0  0  0  0  0  0  0  0  0  0  0  0
    8.1542   19.0675   -1.8921 H   0  0  0  0  0  0  0  0  0  0  0  0
    9.3482   13.6412  -10.2456 H   0  0  0  0  0  0  0  0  0  0  0  0
    7.0111   14.3649  -11.0138 H   0  0  0  0  0  0  0  0  0  0  0  0
    5.2725   12.9506   -9.4686 H   0  0  0  0  0  0  0  0  0  0  0  0
    4.0245   11.8543  -11.2274 H   0  0  0  0  0  0  0  0  0  0  0  0
   -1.8880    9.4754   -5.9719 H   0  0  0  0  0  0  0  0  0  0  0  0
   -0.1115    8.1199   -6.7255 H   0  0  0  0  0  0  0  0  0  0  0  0
   -1.2418    6.7052   -6.6474 H   0  0  0  0  0  0  0  0  0  0  0  0
   -0.8227    7.7613   -2.7119 H   0  0  0  0  0  0  0  0  0  0  0  0
   -2.2683    7.8732   -3.6871 H   0  0  0  0  0  0  0  0  0  0  0  0
   -1.0601    9.1329   -3.7680 H   0  0  0  0  0  0  0  0  0  0  0  0
    1.2109    7.4722   -3.8102 H   0  0  0  0  0  0  0  0  0  0  0  0
   -3.5306    7.8486   -4.9891 H   0  0  0  0  0  0  0  0  0  0  0  0
  1  2  1  0  0  0  0
  1103  1  0  0  0  0
  1104  1  0  0  0  0
  1105  1  0  0  0  0
  2  3  2  0  0  0  0
  2106  1  0  0  0  0
  3  4  1  0  0  0  0
  4107  1  0  0  0  0
  4108  1  0  0  0  0
  4109  1  0  0  0  0
  5  6  1  0  0  0  0
  5 16  1  0  0  0  0
  5  3  1  0  0  0  0
  5110  1  6  0  0  0
  6  7  2  0  0  0  0
  6111  1  0  0  0  0
  7  8  1  0  0  0  0
  7112  1  0  0  0  0
  8  9  1  0  0  0  0
  8 15  1  0  0  0  0
  8113  1  6  0  0  0
  9 10  1  0  0  0  0
  9114  1  0  0  0  0
  9115  1  0  0  0  0
 10 12  1  0  0  0  0
 10 11  1  0  0  0  0
 10116  1  6  0  0  0
 11117  1  0  0  0  0
 11118  1  0  0  0  0
 11119  1  0  0  0  0
 12 13  1  0  0  0  0
 12120  1  0  0  0  0
 12121  1  0  0  0  0
 13 14  1  0  0  0  0
 13 15  1  0  0  0  0
 13122  1  6  0  0  0
 14123  1  0  0  0  0
 14124  1  0  0  0  0
 14125  1  0  0  0  0
 15 16  1  0  0  0  0
 15126  1  6  0  0  0
 16 17  1  0  0  0  0
 16127  1  6  0  0  0
 17 18  2  0  0  0  0
 17 19  1  0  0  0  0
 19 20  2  0  0  0  0
 19101  1  0  0  0  0
 20 21  1  0  0  0  0
 20 92  1  0  0  0  0
 21 22  1  0  0  0  0
 21128  1  0  0  0  0
 22 23  1  0  0  0  0
 22129  1  0  0  0  0
 22130  1  0  0  0  0
 23 24  1  0  0  0  0
 23131  1  0  0  0  0
 23132  1  0  0  0  0
 24 25  1  0  0  0  0
 24133  1  0  0  0  0
 24134  1  0  0  0  0
 25 26  1  0  0  0  0
 25135  1  0  0  0  0
 25136  1  0  0  0  0
 26 27  1  0  0  0  0
 26137  1  0  0  0  0
 27 28  2  0  0  0  0
 27 29  1  0  0  0  0
 29 30  1  0  0  0  0
 29 91  2  0  0  0  0
 30 31  2  0  0  0  0
 30138  1  0  0  0  0
 31 32  1  0  0  0  0
 31139  1  0  0  0  0
 32 33  1  0  0  0  0
 32 90  2  0  0  0  0
 33 34  1  0  0  0  0
 33 84  2  0  0  0  0
 34 35  2  0  0  0  0
 34 89  1  0  0  0  0
 35 36  1  0  0  0  0
 36 37  2  0  0  0  0
 36 88  1  0  0  0  0
 37 38  1  0  0  0  0
 37 49  1  0  0  0  0
 38 39  1  0  0  0  0
 38 47  2  0  0  0  0
 39 40  2  0  0  0  0
 39140  1  0  0  0  0
 40 41  1  0  0  0  0
 40141  1  0  0  0  0
 41 42  2  0  0  0  0
 41142  1  0  0  0  0
 42 43  1  0  0  0  0
 42 47  1  0  0  0  0
 43 44  2  0  0  0  0
 43 45  2  0  0  0  0
 43 46  1  0  0  0  0
 47 48  1  0  0  0  0
 49 50  2  0  0  0  0
 49 53  1  0  0  0  0
 50 51  1  0  0  0  0
 50143  1  0  0  0  0
 51 52  2  0  0  0  0
 51144  1  0  0  0  0
 52 53  1  0  0  0  0
 52 54  1  0  0  0  0
 53145  1  0  0  0  0
 54 55  1  0  0  0  0
 54 66  2  0  0  0  0
 55 56  1  0  0  0  0
 55 64  2  0  0  0  0
 56 57  2  0  0  0  0
 56146  1  0  0  0  0
 57 58  1  0  0  0  0
 57147  1  0  0  0  0
 58 59  2  0  0  0  0
 58148  1  0  0  0  0
 59 60  1  0  0  0  0
 59 64  1  0  0  0  0
 60 61  2  0  0  0  0
 60 62  2  0  0  0  0
 60 63  1  0  0  0  0
 64 65  1  0  0  0  0
 66 67  1  0  0  0  0
 66 87  1  0  0  0  0
 67 68  2  0  0  0  0
 68 69  1  0  0  0  0
 68 86  1  0  0  0  0
 69 70  1  0  0  0  0
 69 81  2  0  0  0  0
 70 71  1  0  0  0  0
 70 79  2  0  0  0  0
 71 72  2  0  0  0  0
 71149  1  0  0  0  0
 72 73  1  0  0  0  0
 72150  1  0  0  0  0
 73 74  2  0  0  0  0
 73151  1  0  0  0  0
 74 75  1  0  0  0  0
 74 79  1  0  0  0  0
 75 76  2  0  0  0  0
 75 77  2  0  0  0  0
 75 78  1  0  0  0  0
 79 80  1  0  0  0  0
 81 82  1  0  0  0  0
 81 85  1  0  0  0  0
 82 83  2  0  0  0  0
 82152  1  0  0  0  0
 83 84  1  0  0  0  0
 83153  1  0  0  0  0
 84 85  1  0  0  0  0
 85154  1  0  0  0  0
 86 87  2  0  0  0  0
 86155  1  0  0  0  0
 87156  1  0  0  0  0
 88 89  2  0  0  0  0
 88157  1  0  0  0  0
 89158  1  0  0  0  0
 90 91  1  0  0  0  0
 90159  1  0  0  0  0
 91160  1  0  0  0  0
 92100  1  0  0  0  0
 92 93  1  0  0  0  0
 92161  1  1  0  0  0
 93162  1  0  0  0  0
 93163  1  0  0  0  0
 94 96  1  1  0  0  0
 94 97  1  0  0  0  0
 94 95  1  0  0  0  0
 94 93  1  0  0  0  0
 95164  1  0  0  0  0
 95165  1  0  0  0  0
 95166  1  0  0  0  0
 96167  1  0  0  0  0
 97 98  2  0  0  0  0
 97 99  1  0  0  0  0
100101  1  0  0  0  0
100168  1  0  0  0  0
101102  2  0  0  0  0
M  CHG  4  46  -1  63  -1  78  -1  99  -1
M  END
$$$$
