6_1_6101
 OpenBabel04152301373D

150161  0  0  1  0  0  0  0  0999 V2000
    1.0500   -0.0281   -0.4678 C   0  0  0  0  0  0  0  0  0  0  0  0
    0.5272   -0.8444    0.6985 C   0  0  0  0  0  0  0  0  0  0  0  0
    1.0678   -0.3379    2.0031 C   0  0  0  0  0  0  0  0  0  0  0  0
    0.5438    0.8000    2.4984 N   0  0  0  0  0  0  0  0  0  0  0  0
    0.9655    1.1659    3.7228 C   0  0  0  0  0  0  0  0  0  0  0  0
    1.8738    0.4430    4.4651 C   0  0  0  0  0  0  0  0  0  0  0  0
    2.1746    0.7537    5.8976 C   0  0  0  0  0  0  0  0  0  0  0  0
    1.3418    0.0343    6.8722 N   0  3  1  0  0  0  0  0  0  0  0  0
   -0.0661    0.4584    6.8557 C   0  0  0  0  0  0  0  0  0  0  0  0
   -0.8459   -0.1502    8.0194 C   0  0  0  0  0  0  0  0  0  0  0  0
   -0.7051   -1.6643    8.0293 C   0  0  0  0  0  0  0  0  0  0  0  0
    0.7867   -2.0707    7.9947 C   0  0  1  0  0  0  0  0  0  0  0  0
    0.8874   -3.5860    8.1313 C   0  0  0  0  0  0  0  0  0  0  0  0
    0.2454   -4.4651    7.2527 C   0  0  0  0  0  0  0  0  0  0  0  0
   -0.1954   -5.7044    7.7233 C   0  0  0  0  0  0  0  0  0  0  0  0
   -0.1142   -5.9896    9.0903 C   0  0  0  0  0  0  0  0  0  0  0  0
    0.5513   -5.1042    9.9439 C   0  0  0  0  0  0  0  0  0  0  0  0
    0.2883   -5.1630   11.4129 C   0  0  0  0  0  0  0  0  0  0  0  0
    0.1379   -6.2591   11.9476 O   0  0  0  0  0  0  0  0  0  0  0  0
    0.1081   -4.0039   12.1613 N   0  0  0  0  0  0  0  0  0  0  0  0
    0.2727   -2.6052   11.7845 C   0  0  0  0  0  0  0  0  0  0  0  0
   -0.7599   -1.6125   12.2929 C   0  0  0  0  0  0  0  0  0  0  0  0
   -0.7650   -1.3400   13.7848 C   0  0  0  0  0  0  0  0  0  0  0  0
    0.5844   -1.0131   14.4088 C   0  0  0  0  0  0  0  0  0  0  0  0
    1.2485    0.1501   13.8358 N   0  0  0  0  0  0  0  0  0  0  0  0
    1.8531    1.2109   14.4786 C   0  0  0  0  0  0  0  0  0  0  0  0
    2.3116    2.1398   13.8266 O   0  0  0  0  0  0  0  0  0  0  0  0
    1.9092    1.2404   15.9600 C   0  0  0  0  0  0  0  0  0  0  0  0
    1.5755    2.4227   16.6267 C   0  0  0  0  0  0  0  0  0  0  0  0
    1.5176    2.4381   18.0238 C   0  0  0  0  0  0  0  0  0  0  0  0
    1.7444    1.2627   18.7585 C   0  0  0  0  0  0  0  0  0  0  0  0
    1.6350    1.2403   20.2412 C   0  0  0  0  0  0  0  0  0  0  0  0
    2.8346    0.8845   21.0812 C   0  0  0  0  0  0  0  0  0  0  0  0
    2.9286    0.7747   22.3811 N   0  0  0  0  0  0  0  0  0  0  0  0
    4.2274    0.3484   22.6340 C   0  0  0  0  0  0  0  0  0  0  0  0
    4.8436    0.1538   23.8241 C   0  0  0  0  0  0  0  0  0  0  0  0
    6.2901   -0.2690   23.8009 C   0  0  0  0  0  0  0  0  0  0  0  0
    7.2758    0.6499   23.3841 C   0  0  0  0  0  0  0  0  0  0  0  0
    8.6219    0.2888   23.3612 C   0  0  0  0  0  0  0  0  0  0  0  0
    8.9995   -0.9744   23.8066 C   0  0  0  0  0  0  0  0  0  0  0  0
    8.0304   -1.8868   24.2555 C   0  0  0  0  0  0  0  0  0  0  0  0
    8.6275   -3.4582   24.8888 S   0  0  0  0  0  0  0  0  0  0  0  0
    9.0525   -4.1287   23.6608 O   0  0  0  0  0  0  0  0  0  0  0  0
    9.7224   -3.0407   25.7652 O   0  0  0  0  0  0  0  0  0  0  0  0
    7.4988   -4.0684   25.5769 O   0  5  0  0  0  0  0  0  0  0  0  0
    6.6814   -1.5501   24.2355 C   0  0  0  0  0  0  0  0  0  0  0  0
    5.7303   -2.4183   24.6079 F   0  0  0  0  0  0  0  0  0  0  0  0
    4.2192    0.3830   25.0981 C   0  0  0  0  0  0  0  0  0  0  0  0
    4.7830    0.3070   26.3592 C   0  0  0  0  0  0  0  0  0  0  0  0
    3.7893    0.5991   27.2997 C   0  0  0  0  0  0  0  0  0  0  0  0
    2.6142    0.8816   26.6221 C   0  0  0  0  0  0  0  0  0  0  0  0
    2.8903    0.7347   25.2741 N   0  0  0  0  0  0  0  0  0  0  0  0
    1.3330    1.2510   27.1661 C   0  0  0  0  0  0  0  0  0  0  0  0
    1.2280    1.4020   28.6610 C   0  0  0  0  0  0  0  0  0  0  0  0
    0.5504    0.4289   29.4215 C   0  0  0  0  0  0  0  0  0  0  0  0
    0.4737    0.5415   30.8093 C   0  0  0  0  0  0  0  0  0  0  0  0
    1.1199    1.5955   31.4513 C   0  0  0  0  0  0  0  0  0  0  0  0
    1.8245    2.5535   30.7050 C   0  0  0  0  0  0  0  0  0  0  0  0
    2.7134    3.8220   31.6149 S   0  0  0  0  0  0  0  0  0  0  0  0
    1.6338    4.7342   31.9875 O   0  0  0  0  0  0  0  0  0  0  0  0
    3.2846    3.0656   32.7302 O   0  0  0  0  0  0  0  0  0  0  0  0
    3.6996    4.3592   30.6869 O   0  5  0  0  0  0  0  0  0  0  0  0
    1.8622    2.4750   29.3181 C   0  0  0  0  0  0  0  0  0  0  0  0
    2.4851    3.4030   28.5767 F   0  0  0  0  0  0  0  0  0  0  0  0
    0.2116    1.4560   26.4319 C   0  0  0  0  0  0  0  0  0  0  0  0
    0.0459    1.4070   25.0522 N   0  0  0  0  0  0  0  0  0  0  0  0
   -1.2248    1.6440   24.8334 C   0  0  0  0  0  0  0  0  0  0  0  0
   -1.9509    1.7857   23.5220 C   0  0  0  0  0  0  0  0  0  0  0  0
   -3.4074    2.1027   23.4858 C   0  0  0  0  0  0  0  0  0  0  0  0
   -3.8502    3.3650   23.9287 C   0  0  0  0  0  0  0  0  0  0  0  0
   -5.2075    3.6879   23.9198 C   0  0  0  0  0  0  0  0  0  0  0  0
   -6.1283    2.7735   23.4166 C   0  0  0  0  0  0  0  0  0  0  0  0
   -5.6951    1.5267   22.9391 C   0  0  0  0  0  0  0  0  0  0  0  0
   -6.9334    0.4648   22.1866 S   0  0  0  0  0  0  0  0  0  0  0  0
   -7.6830    0.0060   23.3529 O   0  0  0  0  0  0  0  0  0  0  0  0
   -7.6511    1.4026   21.3220 O   0  0  0  0  0  0  0  0  0  0  0  0
   -6.1867   -0.5593   21.4686 O   0  5  0  0  0  0  0  0  0  0  0  0
   -4.3500    1.1784   22.9967 C   0  0  0  0  0  0  0  0  0  0  0  0
   -3.9113   -0.0208   22.5892 F   0  0  0  0  0  0  0  0  0  0  0  0
   -1.2489    1.7064   22.3740 C   0  0  0  0  0  0  0  0  0  0  0  0
   -1.8003    1.8721   21.0328 C   0  0  0  0  0  0  0  0  0  0  0  0
   -0.8177    1.7144   20.1307 C   0  0  0  0  0  0  0  0  0  0  0  0
    0.4422    1.4567   20.8319 C   0  0  0  0  0  0  0  0  0  0  0  0
    0.0896    1.4708   22.1589 N   0  0  0  0  0  0  0  0  0  0  0  0
   -2.0195    1.8279   26.0568 C   0  0  0  0  0  0  0  0  0  0  0  0
   -1.0861    1.7648   26.9966 C   0  0  0  0  0  0  0  0  0  0  0  0
    4.8727    0.1763   21.3519 C   0  0  0  0  0  0  0  0  0  0  0  0
    4.0852    0.5778   20.3657 C   0  0  0  0  0  0  0  0  0  0  0  0
    2.0998    0.0920   18.0730 C   0  0  0  0  0  0  0  0  0  0  0  0
    2.2552    0.1019   16.6906 C   0  0  0  0  0  0  0  0  0  0  0  0
    1.2638   -4.0504    9.3939 C   0  0  0  0  0  0  0  0  0  0  0  0
    1.4813   -1.4350    6.7965 C   0  0  0  0  0  0  0  0  0  0  0  0
    2.3983   -0.6625    3.8282 C   0  0  0  0  0  0  0  0  0  0  0  0
    2.0139   -1.0775    2.6090 N   0  0  0  0  0  0  0  0  0  0  0  0
    0.6475   -0.4130   -1.3814 H   0  0  0  0  0  0  0  0  0  0  0  0
    2.1179   -0.0885   -0.4952 H   0  0  0  0  0  0  0  0  0  0  0  0
    0.7535    0.9932   -0.3497 H   0  0  0  0  0  0  0  0  0  0  0  0
    0.8236   -1.8646    0.5708 H   0  0  0  0  0  0  0  0  0  0  0  0
   -0.5393   -0.7602    0.7190 H   0  0  0  0  0  0  0  0  0  0  0  0
    0.5876    2.0364    4.1284 H   0  0  0  0  0  0  0  0  0  0  0  0
    2.0312    1.8034    6.0478 H   0  0  0  0  0  0  0  0  0  0  0  0
    3.1819    0.4364    6.0696 H   0  0  0  0  0  0  0  0  0  0  0  0
    1.7138    0.3058    7.7823 H   0  0  0  0  0  0  0  0  0  0  0  0
   -0.5132    0.1450    5.9355 H   0  0  0  0  0  0  0  0  0  0  0  0
   -0.0977    1.5238    6.9502 H   0  0  0  0  0  0  0  0  0  0  0  0
   -1.8802    0.1055    7.9207 H   0  0  0  0  0  0  0  0  0  0  0  0
   -0.4528    0.2372    8.9361 H   0  0  0  0  0  0  0  0  0  0  0  0
   -1.2002   -2.0694    7.1716 H   0  0  0  0  0  0  0  0  0  0  0  0
   -1.1469   -2.0467    8.9257 H   0  0  0  0  0  0  0  0  0  0  0  0
    1.3340   -1.6827    8.8283 H   0  0  0  0  0  0  0  0  0  0  0  0
    0.0988   -4.2006    6.2660 H   0  0  0  0  0  0  0  0  0  0  0  0
   -0.5778   -6.4037    7.0678 H   0  0  0  0  0  0  0  0  0  0  0  0
   -0.5433   -6.8492    9.4670 H   0  0  0  0  0  0  0  0  0  0  0  0
   -0.1754   -4.1517   13.0925 H   0  0  0  0  0  0  0  0  0  0  0  0
    0.2624   -2.5584   10.7156 H   0  0  0  0  0  0  0  0  0  0  0  0
    1.1890   -2.3052   12.2485 H   0  0  0  0  0  0  0  0  0  0  0  0
   -1.7269   -1.9862   12.0281 H   0  0  0  0  0  0  0  0  0  0  0  0
   -0.5016   -0.6795   11.8372 H   0  0  0  0  0  0  0  0  0  0  0  0
   -1.1501   -2.2097   14.2750 H   0  0  0  0  0  0  0  0  0  0  0  0
   -1.3630   -0.4624   13.9154 H   0  0  0  0  0  0  0  0  0  0  0  0
    1.2255   -1.8603   14.2818 H   0  0  0  0  0  0  0  0  0  0  0  0
    0.3966   -0.7811   15.4363 H   0  0  0  0  0  0  0  0  0  0  0  0
    1.2688    0.1841   12.8521 H   0  0  0  0  0  0  0  0  0  0  0  0
    1.3727    3.2806   16.0902 H   0  0  0  0  0  0  0  0  0  0  0  0
    1.3068    3.3190   18.5184 H   0  0  0  0  0  0  0  0  0  0  0  0
    6.9973    1.6000   23.0929 H   0  0  0  0  0  0  0  0  0  0  0  0
    9.3328    0.9529   23.0167 H   0  0  0  0  0  0  0  0  0  0  0  0
    9.9962   -1.2421   23.8071 H   0  0  0  0  0  0  0  0  0  0  0  0
    5.7663    0.0750   26.5697 H   0  0  0  0  0  0  0  0  0  0  0  0
    3.9109    0.6034   28.3245 H   0  0  0  0  0  0  0  0  0  0  0  0
    2.2386    0.8614   24.5471 H   0  0  0  0  0  0  0  0  0  0  0  0
    0.1072   -0.3737   28.9478 H   0  0  0  0  0  0  0  0  0  0  0  0
   -0.0587   -0.1520   31.3576 H   0  0  0  0  0  0  0  0  0  0  0  0
    1.0805    1.6725   32.4797 H   0  0  0  0  0  0  0  0  0  0  0  0
   -3.1629    4.0583   24.2634 H   0  0  0  0  0  0  0  0  0  0  0  0
   -5.5268    4.5992   24.2841 H   0  0  0  0  0  0  0  0  0  0  0  0
   -7.1319    3.0128   23.3945 H   0  0  0  0  0  0  0  0  0  0  0  0
   -2.7874    2.0776   20.8128 H   0  0  0  0  0  0  0  0  0  0  0  0
   -0.9322    1.7665   19.1064 H   0  0  0  0  0  0  0  0  0  0  0  0
    0.7345    1.3258   22.8885 H   0  0  0  0  0  0  0  0  0  0  0  0
   -3.0368    1.9691   26.1576 H   0  0  0  0  0  0  0  0  0  0  0  0
   -1.2618    1.9164   28.0022 H   0  0  0  0  0  0  0  0  0  0  0  0
    5.8215   -0.2085   21.2223 H   0  0  0  0  0  0  0  0  0  0  0  0
    4.2935    0.6556   19.3579 H   0  0  0  0  0  0  0  0  0  0  0  0
    2.2472   -0.7840   18.5983 H   0  0  0  0  0  0  0  0  0  0  0  0
    2.6255   -0.7306   16.2060 H   0  0  0  0  0  0  0  0  0  0  0  0
    2.0514   -3.6202    9.9035 H   0  0  0  0  0  0  0  0  0  0  0  0
    2.5189   -1.6962    6.8052 H   0  0  0  0  0  0  0  0  0  0  0  0
    1.0328   -1.7909    5.8926 H   0  0  0  0  0  0  0  0  0  0  0  0
    3.1292   -1.2029    4.3168 H   0  0  0  0  0  0  0  0  0  0  0  0
  1  2  1  0  0  0  0
  1 95  1  0  0  0  0
  1 96  1  0  0  0  0
  1 97  1  0  0  0  0
  2  3  1  0  0  0  0
  2 98  1  0  0  0  0
  2 99  1  0  0  0  0
  3  4  1  0  0  0  0
  3 94  2  0  0  0  0
  4  5  2  0  0  0  0
  5  6  1  0  0  0  0
  5100  1  0  0  0  0
  6  7  1  0  0  0  0
  6 93  2  0  0  0  0
  7  8  1  0  0  0  0
  7101  1  0  0  0  0
  7102  1  0  0  0  0
  8  9  1  0  0  0  0
  8 92  1  0  0  0  0
  8103  1  1  0  0  0
  9 10  1  0  0  0  0
  9104  1  0  0  0  0
  9105  1  0  0  0  0
 10 11  1  0  0  0  0
 10106  1  0  0  0  0
 10107  1  0  0  0  0
 11 12  1  0  0  0  0
 11108  1  0  0  0  0
 11109  1  0  0  0  0
 12 92  1  0  0  0  0
 12 13  1  0  0  0  0
 12110  1  1  0  0  0
 13 14  1  0  0  0  0
 13 91  2  0  0  0  0
 14 15  2  0  0  0  0
 14111  1  0  0  0  0
 15 16  1  0  0  0  0
 15112  1  0  0  0  0
 16 17  2  0  0  0  0
 16113  1  0  0  0  0
 17 18  1  0  0  0  0
 17 91  1  0  0  0  0
 18 19  2  0  0  0  0
 18 20  1  0  0  0  0
 20 21  1  0  0  0  0
 20114  1  0  0  0  0
 21 22  1  0  0  0  0
 21115  1  0  0  0  0
 21116  1  0  0  0  0
 22 23  1  0  0  0  0
 22117  1  0  0  0  0
 22118  1  0  0  0  0
 23 24  1  0  0  0  0
 23119  1  0  0  0  0
 23120  1  0  0  0  0
 24 25  1  0  0  0  0
 24121  1  0  0  0  0
 24122  1  0  0  0  0
 25 26  1  0  0  0  0
 25123  1  0  0  0  0
 26 27  2  0  0  0  0
 26 28  1  0  0  0  0
 28 29  1  0  0  0  0
 28 90  2  0  0  0  0
 29 30  2  0  0  0  0
 29124  1  0  0  0  0
 30 31  1  0  0  0  0
 30125  1  0  0  0  0
 31 32  1  0  0  0  0
 31 89  2  0  0  0  0
 32 33  1  0  0  0  0
 32 83  2  0  0  0  0
 33 34  2  0  0  0  0
 33 88  1  0  0  0  0
 34 35  1  0  0  0  0
 35 36  2  0  0  0  0
 35 87  1  0  0  0  0
 36 37  1  0  0  0  0
 36 48  1  0  0  0  0
 37 38  1  0  0  0  0
 37 46  2  0  0  0  0
 38 39  2  0  0  0  0
 38126  1  0  0  0  0
 39 40  1  0  0  0  0
 39127  1  0  0  0  0
 40 41  2  0  0  0  0
 40128  1  0  0  0  0
 41 42  1  0  0  0  0
 41 46  1  0  0  0  0
 42 43  2  0  0  0  0
 42 44  2  0  0  0  0
 42 45  1  0  0  0  0
 46 47  1  0  0  0  0
 48 49  2  0  0  0  0
 48 52  1  0  0  0  0
 49 50  1  0  0  0  0
 49129  1  0  0  0  0
 50 51  2  0  0  0  0
 50130  1  0  0  0  0
 51 52  1  0  0  0  0
 51 53  1  0  0  0  0
 52131  1  0  0  0  0
 53 54  1  0  0  0  0
 53 65  2  0  0  0  0
 54 55  1  0  0  0  0
 54 63  2  0  0  0  0
 55 56  2  0  0  0  0
 55132  1  0  0  0  0
 56 57  1  0  0  0  0
 56133  1  0  0  0  0
 57 58  2  0  0  0  0
 57134  1  0  0  0  0
 58 59  1  0  0  0  0
 58 63  1  0  0  0  0
 59 60  2  0  0  0  0
 59 61  2  0  0  0  0
 59 62  1  0  0  0  0
 63 64  1  0  0  0  0
 65 66  1  0  0  0  0
 65 86  1  0  0  0  0
 66 67  2  0  0  0  0
 67 68  1  0  0  0  0
 67 85  1  0  0  0  0
 68 69  1  0  0  0  0
 68 80  2  0  0  0  0
 69 70  1  0  0  0  0
 69 78  2  0  0  0  0
 70 71  2  0  0  0  0
 70135  1  0  0  0  0
 71 72  1  0  0  0  0
 71136  1  0  0  0  0
 72 73  2  0  0  0  0
 72137  1  0  0  0  0
 73 74  1  0  0  0  0
 73 78  1  0  0  0  0
 74 75  2  0  0  0  0
 74 76  2  0  0  0  0
 74 77  1  0  0  0  0
 78 79  1  0  0  0  0
 80 81  1  0  0  0  0
 80 84  1  0  0  0  0
 81 82  2  0  0  0  0
 81138  1  0  0  0  0
 82 83  1  0  0  0  0
 82139  1  0  0  0  0
 83 84  1  0  0  0  0
 84140  1  0  0  0  0
 85 86  2  0  0  0  0
 85141  1  0  0  0  0
 86142  1  0  0  0  0
 87 88  2  0  0  0  0
 87143  1  0  0  0  0
 88144  1  0  0  0  0
 89 90  1  0  0  0  0
 89145  1  0  0  0  0
 90146  1  0  0  0  0
 91147  1  0  0  0  0
 92148  1  0  0  0  0
 92149  1  0  0  0  0
 93 94  1  0  0  0  0
 93150  1  0  0  0  0
M  CHG  4   8   1  45  -1  62  -1  77  -1
M  END
$$$$
