6_1_5221
 OpenBabel04152301373D

128136  0  0  0  0  0  0  0  0999 V2000
    0.4182   -0.5870   -0.3190 C   0  0  0  0  0  0  0  0  0  0  0  0
    0.1126   -1.1398    1.0655 C   0  0  0  0  0  0  0  0  0  0  0  0
    0.9518   -0.5301    2.1889 C   0  0  0  0  0  0  0  0  0  0  0  0
    0.5730    0.9211    2.4722 C   0  0  0  0  0  0  0  0  0  0  0  0
   -0.4187    1.1390    3.1727 O   0  0  0  0  0  0  0  0  0  0  0  0
    1.3390    2.0698    1.8545 C   0  0  0  0  0  0  0  0  0  0  0  0
    2.3701    1.8024    1.0326 C   0  0  0  0  0  0  0  0  0  0  0  0
    3.1478    2.7102    0.3554 N   0  0  0  0  0  0  0  0  0  0  0  0
    3.8145    2.3584   -0.7959 C   0  0  0  0  0  0  0  0  0  0  0  0
    4.2241    3.4264   -1.5253 N   0  0  0  0  0  0  0  0  0  0  0  0
    3.9399    1.2206   -1.2200 O   0  0  0  0  0  0  0  0  0  0  0  0
    0.8851    3.4580    2.1842 C   0  0  0  0  0  0  0  0  0  0  0  0
    0.8240    3.8250    3.3569 O   0  0  0  0  0  0  0  0  0  0  0  0
    0.5209    4.3469    1.2030 N   0  0  0  0  0  0  0  0  0  0  0  0
    0.6791    4.2664   -0.2369 C   0  0  0  0  0  0  0  0  0  0  0  0
   -0.2892    5.0967   -1.0687 C   0  0  0  0  0  0  0  0  0  0  0  0
   -0.2853    6.6102   -0.8457 C   0  0  0  0  0  0  0  0  0  0  0  0
    1.0639    7.3155   -0.7234 C   0  0  0  0  0  0  0  0  0  0  0  0
    1.9619    7.1237   -1.8538 N   0  0  0  0  0  0  0  0  0  0  0  0
    2.6697    8.0470   -2.5938 C   0  0  0  0  0  0  0  0  0  0  0  0
    3.3988    7.6521   -3.5011 O   0  0  0  0  0  0  0  0  0  0  0  0
    2.5101    9.5011   -2.3506 C   0  0  0  0  0  0  0  0  0  0  0  0
    2.2636   10.3357   -3.4461 C   0  0  0  0  0  0  0  0  0  0  0  0
    1.9429   11.6819   -3.2401 C   0  0  0  0  0  0  0  0  0  0  0  0
    1.8229   12.1932   -1.9373 C   0  0  0  0  0  0  0  0  0  0  0  0
    1.2892   13.5622   -1.6915 C   0  0  0  0  0  0  0  0  0  0  0  0
    2.1175   14.6021   -0.9856 C   0  0  0  0  0  0  0  0  0  0  0  0
    1.7942   15.8257   -0.6530 N   0  0  0  0  0  0  0  0  0  0  0  0
    2.8863   16.3350    0.0392 C   0  0  0  0  0  0  0  0  0  0  0  0
    3.0710   17.5793    0.5430 C   0  0  0  0  0  0  0  0  0  0  0  0
    4.3908   17.8742    1.2078 C   0  0  0  0  0  0  0  0  0  0  0  0
    5.5508   17.9952    0.4152 C   0  0  0  0  0  0  0  0  0  0  0  0
    6.7831   18.2880    0.9971 C   0  0  0  0  0  0  0  0  0  0  0  0
    6.8573   18.5109    2.3689 C   0  0  0  0  0  0  0  0  0  0  0  0
    5.7034   18.4218    3.1650 C   0  0  0  0  0  0  0  0  0  0  0  0
    5.8885   18.8024    4.9112 S   0  0  0  0  0  0  0  0  0  0  0  0
    6.5618   17.6019    5.4042 O   0  0  0  0  0  0  0  0  0  0  0  0
    6.7268   20.0015    4.8798 O   0  0  0  0  0  0  0  0  0  0  0  0
    4.5405   19.0196    5.4171 O   0  5  0  0  0  0  0  0  0  0  0  0
    4.4783   18.0884    2.5971 C   0  0  0  0  0  0  0  0  0  0  0  0
    3.3700   17.9490    3.3383 F   0  0  0  0  0  0  0  0  0  0  0  0
    2.1166   18.6493    0.4272 C   0  0  0  0  0  0  0  0  0  0  0  0
    2.2575   19.9726    0.8082 C   0  0  0  0  0  0  0  0  0  0  0  0
    1.0628   20.6414    0.5193 C   0  0  0  0  0  0  0  0  0  0  0  0
    0.1840   19.7380   -0.0558 C   0  0  0  0  0  0  0  0  0  0  0  0
    0.8431   18.5210   -0.1040 N   0  0  0  0  0  0  0  0  0  0  0  0
   -1.1637   19.9642   -0.5111 C   0  0  0  0  0  0  0  0  0  0  0  0
   -1.7339   21.3488   -0.3492 C   0  0  0  0  0  0  0  0  0  0  0  0
   -2.6818   21.5983    0.6629 C   0  0  0  0  0  0  0  0  0  0  0  0
   -3.1886   22.8825    0.8588 C   0  0  0  0  0  0  0  0  0  0  0  0
   -2.7161   23.9351    0.0785 C   0  0  0  0  0  0  0  0  0  0  0  0
   -1.7533   23.7019   -0.9166 C   0  0  0  0  0  0  0  0  0  0  0  0
   -1.1306   25.1296   -1.8123 S   0  0  0  0  0  0  0  0  0  0  0  0
   -2.2268   25.4014   -2.7402 O   0  0  0  0  0  0  0  0  0  0  0  0
   -0.9718   26.1221   -0.7485 O   0  0  0  0  0  0  0  0  0  0  0  0
    0.1197   24.7006   -2.4248 O   0  5  0  0  0  0  0  0  0  0  0  0
   -1.2777   22.4161   -1.1476 C   0  0  0  0  0  0  0  0  0  0  0  0
   -0.3916   22.1556   -2.1199 F   0  0  0  0  0  0  0  0  0  0  0  0
   -1.9660   19.0114   -1.0465 C   0  0  0  0  0  0  0  0  0  0  0  0
   -1.6858   17.6732   -1.2987 N   0  0  0  0  0  0  0  0  0  0  0  0
   -2.7914   17.1589   -1.7794 C   0  0  0  0  0  0  0  0  0  0  0  0
   -3.0453   15.7630   -2.2800 C   0  0  0  0  0  0  0  0  0  0  0  0
   -4.3706   15.3847   -2.8493 C   0  0  0  0  0  0  0  0  0  0  0  0
   -4.7758   15.9425   -4.0779 C   0  0  0  0  0  0  0  0  0  0  0  0
   -6.0053   15.6031   -4.6434 C   0  0  0  0  0  0  0  0  0  0  0  0
   -6.8166   14.6640   -4.0131 C   0  0  0  0  0  0  0  0  0  0  0  0
   -6.4097   14.0790   -2.8041 C   0  0  0  0  0  0  0  0  0  0  0  0
   -7.4491   12.7764   -2.1323 S   0  0  0  0  0  0  0  0  0  0  0  0
   -8.5695   13.5380   -1.5877 O   0  0  0  0  0  0  0  0  0  0  0  0
   -7.7603   11.9894   -3.3265 O   0  0  0  0  0  0  0  0  0  0  0  0
   -6.6190   12.0796   -1.1587 O   0  5  0  0  0  0  0  0  0  0  0  0
   -5.2107   14.4545   -2.2079 C   0  0  0  0  0  0  0  0  0  0  0  0
   -4.8149   13.9451   -1.0328 F   0  0  0  0  0  0  0  0  0  0  0  0
   -2.0340   14.8715   -2.2841 C   0  0  0  0  0  0  0  0  0  0  0  0
   -2.1251   13.5003   -2.7750 C   0  0  0  0  0  0  0  0  0  0  0  0
   -0.9402   12.8927   -2.6050 C   0  0  0  0  0  0  0  0  0  0  0  0
    0.0078   13.8400   -2.0128 C   0  0  0  0  0  0  0  0  0  0  0  0
   -0.7292   14.9899   -1.8620 N   0  0  0  0  0  0  0  0  0  0  0  0
   -3.9112   18.1089   -1.8571 C   0  0  0  0  0  0  0  0  0  0  0  0
   -3.3387   19.2345   -1.4512 C   0  0  0  0  0  0  0  0  0  0  0  0
    3.8700   15.2757    0.1080 C   0  0  0  0  0  0  0  0  0  0  0  0
    3.4739   14.2089   -0.5721 C   0  0  0  0  0  0  0  0  0  0  0  0
    2.1520   11.3625   -0.8549 C   0  0  0  0  0  0  0  0  0  0  0  0
    2.5502   10.0414   -1.0643 C   0  0  0  0  0  0  0  0  0  0  0  0
   -0.2102   -1.0656   -1.0408 H   0  0  0  0  0  0  0  0  0  0  0  0
    1.4440   -0.7740   -0.5593 H   0  0  0  0  0  0  0  0  0  0  0  0
    0.2357    0.4673   -0.3304 H   0  0  0  0  0  0  0  0  0  0  0  0
    0.2892   -2.1950    1.0509 H   0  0  0  0  0  0  0  0  0  0  0  0
   -0.9064   -0.8900    1.2758 H   0  0  0  0  0  0  0  0  0  0  0  0
    1.9834   -0.5678    1.9072 H   0  0  0  0  0  0  0  0  0  0  0  0
    0.7689   -1.0960    3.0784 H   0  0  0  0  0  0  0  0  0  0  0  0
    2.6023    0.8062    0.8959 H   0  0  0  0  0  0  0  0  0  0  0  0
    3.2296    3.6288    0.6999 H   0  0  0  0  0  0  0  0  0  0  0  0
    4.1154    4.3373   -1.1681 H   0  0  0  0  0  0  0  0  0  0  0  0
    4.6300    3.2905   -2.4119 H   0  0  0  0  0  0  0  0  0  0  0  0
    0.0840    5.1673    1.5274 H   0  0  0  0  0  0  0  0  0  0  0  0
    0.5582    3.2421   -0.5215 H   0  0  0  0  0  0  0  0  0  0  0  0
    1.6491    4.6696   -0.4407 H   0  0  0  0  0  0  0  0  0  0  0  0
   -1.2773    4.7434   -0.8597 H   0  0  0  0  0  0  0  0  0  0  0  0
    0.0357    4.9669   -2.0799 H   0  0  0  0  0  0  0  0  0  0  0  0
   -0.8260    6.7997    0.0580 H   0  0  0  0  0  0  0  0  0  0  0  0
   -0.7159    7.0121   -1.7390 H   0  0  0  0  0  0  0  0  0  0  0  0
    1.5523    6.9482    0.1549 H   0  0  0  0  0  0  0  0  0  0  0  0
    0.8517    8.3635   -0.6838 H   0  0  0  0  0  0  0  0  0  0  0  0
    2.0825    6.1875   -2.1336 H   0  0  0  0  0  0  0  0  0  0  0  0
    2.3183    9.9587   -4.4052 H   0  0  0  0  0  0  0  0  0  0  0  0
    1.7936   12.3032   -4.0505 H   0  0  0  0  0  0  0  0  0  0  0  0
    5.4867   17.8656   -0.6066 H   0  0  0  0  0  0  0  0  0  0  0  0
    7.6339   18.3391    0.4152 H   0  0  0  0  0  0  0  0  0  0  0  0
    7.7643   18.7427    2.8032 H   0  0  0  0  0  0  0  0  0  0  0  0
    3.0989   20.3935    1.2323 H   0  0  0  0  0  0  0  0  0  0  0  0
    0.8692   21.6382    0.7034 H   0  0  0  0  0  0  0  0  0  0  0  0
    0.4627   17.6869   -0.4630 H   0  0  0  0  0  0  0  0  0  0  0  0
   -3.0038   20.8240    1.2644 H   0  0  0  0  0  0  0  0  0  0  0  0
   -3.9094   23.0520    1.5776 H   0  0  0  0  0  0  0  0  0  0  0  0
   -3.0751   24.8903    0.2324 H   0  0  0  0  0  0  0  0  0  0  0  0
   -4.1566   16.6093   -4.5648 H   0  0  0  0  0  0  0  0  0  0  0  0
   -6.3114   16.0458   -5.5239 H   0  0  0  0  0  0  0  0  0  0  0  0
   -7.7195   14.3973   -4.4358 H   0  0  0  0  0  0  0  0  0  0  0  0
   -2.9662   13.0669   -3.1871 H   0  0  0  0  0  0  0  0  0  0  0  0
   -0.7302   11.9130   -2.8524 H   0  0  0  0  0  0  0  0  0  0  0  0
   -0.3584   15.8212   -1.4869 H   0  0  0  0  0  0  0  0  0  0  0  0
   -4.8867   17.9433   -2.1505 H   0  0  0  0  0  0  0  0  0  0  0  0
   -3.8109   20.1518   -1.4269 H   0  0  0  0  0  0  0  0  0  0  0  0
    4.7636   15.3421    0.6199 H   0  0  0  0  0  0  0  0  0  0  0  0
    3.9836   13.3319   -0.7619 H   0  0  0  0  0  0  0  0  0  0  0  0
    2.0989   11.7329    0.1069 H   0  0  0  0  0  0  0  0  0  0  0  0
    2.8732    9.4660   -0.2708 H   0  0  0  0  0  0  0  0  0  0  0  0
  1  2  1  0  0  0  0
  1 85  1  0  0  0  0
  1 86  1  0  0  0  0
  1 87  1  0  0  0  0
  2  3  1  0  0  0  0
  2 88  1  0  0  0  0
  2 89  1  0  0  0  0
  3  4  1  0  0  0  0
  3 90  1  0  0  0  0
  3 91  1  0  0  0  0
  4  5  2  0  0  0  0
  4  6  1  0  0  0  0
  6  7  2  0  0  0  0
  6 12  1  0  0  0  0
  7  8  1  0  0  0  0
  7 92  1  0  0  0  0
  8  9  1  0  0  0  0
  8 93  1  0  0  0  0
  9 10  1  0  0  0  0
  9 11  2  0  0  0  0
 10 94  1  0  0  0  0
 10 95  1  0  0  0  0
 12 13  2  0  0  0  0
 12 14  1  0  0  0  0
 14 15  1  0  0  0  0
 14 96  1  0  0  0  0
 15 16  1  0  0  0  0
 15 97  1  0  0  0  0
 15 98  1  0  0  0  0
 16 17  1  0  0  0  0
 16 99  1  0  0  0  0
 16100  1  0  0  0  0
 17 18  1  0  0  0  0
 17101  1  0  0  0  0
 17102  1  0  0  0  0
 18 19  1  0  0  0  0
 18103  1  0  0  0  0
 18104  1  0  0  0  0
 19 20  1  0  0  0  0
 19105  1  0  0  0  0
 20 21  2  0  0  0  0
 20 22  1  0  0  0  0
 22 23  1  0  0  0  0
 22 84  2  0  0  0  0
 23 24  2  0  0  0  0
 23106  1  0  0  0  0
 24 25  1  0  0  0  0
 24107  1  0  0  0  0
 25 26  1  0  0  0  0
 25 83  2  0  0  0  0
 26 27  1  0  0  0  0
 26 77  2  0  0  0  0
 27 28  2  0  0  0  0
 27 82  1  0  0  0  0
 28 29  1  0  0  0  0
 29 30  2  0  0  0  0
 29 81  1  0  0  0  0
 30 31  1  0  0  0  0
 30 42  1  0  0  0  0
 31 32  1  0  0  0  0
 31 40  2  0  0  0  0
 32 33  2  0  0  0  0
 32108  1  0  0  0  0
 33 34  1  0  0  0  0
 33109  1  0  0  0  0
 34 35  2  0  0  0  0
 34110  1  0  0  0  0
 35 36  1  0  0  0  0
 35 40  1  0  0  0  0
 36 37  2  0  0  0  0
 36 38  2  0  0  0  0
 36 39  1  0  0  0  0
 40 41  1  0  0  0  0
 42 43  2  0  0  0  0
 42 46  1  0  0  0  0
 43 44  1  0  0  0  0
 43111  1  0  0  0  0
 44 45  2  0  0  0  0
 44112  1  0  0  0  0
 45 46  1  0  0  0  0
 45 47  1  0  0  0  0
 46113  1  0  0  0  0
 47 48  1  0  0  0  0
 47 59  2  0  0  0  0
 48 49  1  0  0  0  0
 48 57  2  0  0  0  0
 49 50  2  0  0  0  0
 49114  1  0  0  0  0
 50 51  1  0  0  0  0
 50115  1  0  0  0  0
 51 52  2  0  0  0  0
 51116  1  0  0  0  0
 52 53  1  0  0  0  0
 52 57  1  0  0  0  0
 53 54  2  0  0  0  0
 53 55  2  0  0  0  0
 53 56  1  0  0  0  0
 57 58  1  0  0  0  0
 59 60  1  0  0  0  0
 59 80  1  0  0  0  0
 60 61  2  0  0  0  0
 61 62  1  0  0  0  0
 61 79  1  0  0  0  0
 62 63  1  0  0  0  0
 62 74  2  0  0  0  0
 63 64  1  0  0  0  0
 63 72  2  0  0  0  0
 64 65  2  0  0  0  0
 64117  1  0  0  0  0
 65 66  1  0  0  0  0
 65118  1  0  0  0  0
 66 67  2  0  0  0  0
 66119  1  0  0  0  0
 67 68  1  0  0  0  0
 67 72  1  0  0  0  0
 68 69  2  0  0  0  0
 68 70  2  0  0  0  0
 68 71  1  0  0  0  0
 72 73  1  0  0  0  0
 74 75  1  0  0  0  0
 74 78  1  0  0  0  0
 75 76  2  0  0  0  0
 75120  1  0  0  0  0
 76 77  1  0  0  0  0
 76121  1  0  0  0  0
 77 78  1  0  0  0  0
 78122  1  0  0  0  0
 79 80  2  0  0  0  0
 79123  1  0  0  0  0
 80124  1  0  0  0  0
 81 82  2  0  0  0  0
 81125  1  0  0  0  0
 82126  1  0  0  0  0
 83 84  1  0  0  0  0
 83127  1  0  0  0  0
 84128  1  0  0  0  0
M  CHG  3  39  -1  56  -1  71  -1
M  END
$$$$
