6_1_5462
 OpenBabel04152301373D

142151  0  0  1  0  0  0  0  0999 V2000
    2.5868   -0.6776   -0.0703 C   0  0  0  0  0  0  0  0  0  0  0  0
    1.1334   -0.3075    0.0152 C   0  0  0  0  0  0  0  0  0  0  0  0
    0.2879   -1.4427    0.0276 C   0  0  0  0  0  0  0  0  0  0  0  0
   -1.0953   -1.3323    0.1552 C   0  0  0  0  0  0  0  0  0  0  0  0
   -2.0462   -2.8191    0.1222 S   0  0  0  0  0  0  0  0  0  0  0  0
   -1.5742   -3.6202   -1.0011 O   0  0  0  0  0  0  0  0  0  0  0  0
   -2.0732   -3.3339    1.4587 O   0  0  0  0  0  0  0  0  0  0  0  0
   -3.5827   -2.3482   -0.2310 N   0  0  0  0  0  0  0  0  0  0  0  0
   -4.0359   -1.7288   -1.4908 C   0  0  1  0  0  0  0  0  0  0  0  0
   -3.5848   -2.3718   -2.8077 C   0  0  0  0  0  0  0  0  0  0  0  0
   -3.6049   -3.7925   -2.8213 O   0  0  0  0  0  0  0  0  0  0  0  0
   -5.5595   -1.5877   -1.4047 C   0  0  0  0  0  0  0  0  0  0  0  0
   -6.0931   -0.4864   -1.5702 O   0  0  0  0  0  0  0  0  0  0  0  0
   -6.3524   -2.6454   -1.0640 N   0  0  0  0  0  0  0  0  0  0  0  0
   -6.0089   -4.0480   -0.8660 C   0  0  0  0  0  0  0  0  0  0  0  0
   -6.3000   -4.5410    0.5549 C   0  0  0  0  0  0  0  0  0  0  0  0
   -7.7304   -4.3340    1.0389 C   0  0  0  0  0  0  0  0  0  0  0  0
   -8.7824   -4.9726    0.1546 C   0  0  0  0  0  0  0  0  0  0  0  0
   -9.0201   -6.3715    0.4294 N   0  0  0  0  0  0  0  0  0  0  0  0
  -10.0896   -7.1544    0.0277 C   0  0  0  0  0  0  0  0  0  0  0  0
  -10.3487   -8.1621    0.6781 O   0  0  0  0  0  0  0  0  0  0  0  0
  -10.7739   -6.8728   -1.2658 C   0  0  0  0  0  0  0  0  0  0  0  0
  -11.0731   -7.9838   -2.0663 C   0  0  0  0  0  0  0  0  0  0  0  0
  -11.0176   -7.8651   -3.4480 C   0  0  0  0  0  0  0  0  0  0  0  0
  -10.6315   -6.6411   -3.9668 C   0  0  0  0  0  0  0  0  0  0  0  0
  -10.2871   -6.3865   -5.3416 C   0  0  0  0  0  0  0  0  0  0  0  0
  -11.3831   -6.0181   -6.2495 C   0  0  0  0  0  0  0  0  0  0  0  0
  -11.2688   -5.9789   -7.5250 N   0  0  0  0  0  0  0  0  0  0  0  0
  -12.3589   -5.2836   -8.0029 C   0  0  0  0  0  0  0  0  0  0  0  0
  -12.2547   -4.6836   -9.2198 C   0  0  0  0  0  0  0  0  0  0  0  0
  -13.2163   -3.6419   -9.7629 C   0  0  0  0  0  0  0  0  0  0  0  0
  -12.7000   -2.7388  -10.7191 C   0  0  0  0  0  0  0  0  0  0  0  0
  -13.4439   -1.6736  -11.2332 C   0  0  0  0  0  0  0  0  0  0  0  0
  -14.7404   -1.4672  -10.7939 C   0  0  0  0  0  0  0  0  0  0  0  0
  -15.3075   -2.3620   -9.8819 C   0  0  0  0  0  0  0  0  0  0  0  0
  -16.9774   -1.9727   -9.3210 S   0  0  0  0  0  0  0  0  0  0  0  0
  -16.8523   -0.5640   -8.9368 O   0  0  0  0  0  0  0  0  0  0  0  0
  -17.7771   -2.2006  -10.5224 O   0  0  0  0  0  0  0  0  0  0  0  0
  -17.2495   -2.8680   -8.2031 O   0  5  0  0  0  0  0  0  0  0  0  0
  -14.5762   -3.4602   -9.4085 C   0  0  0  0  0  0  0  0  0  0  0  0
  -15.1994   -4.3829   -8.6680 F   0  0  0  0  0  0  0  0  0  0  0  0
  -10.9127   -4.9252   -9.7839 C   0  0  0  0  0  0  0  0  0  0  0  0
   -9.7448   -4.1788   -9.8312 C   0  0  0  0  0  0  0  0  0  0  0  0
   -8.6632   -5.0585  -10.1422 C   0  0  0  0  0  0  0  0  0  0  0  0
   -9.1732   -6.3330  -10.3119 C   0  0  0  0  0  0  0  0  0  0  0  0
  -10.5356   -6.2294  -10.0677 N   0  0  0  0  0  0  0  0  0  0  0  0
   -8.6285   -7.6453  -10.6596 C   0  0  0  0  0  0  0  0  0  0  0  0
   -9.1147   -8.2988  -11.9598 C   0  0  0  0  0  0  0  0  0  0  0  0
   -8.4966   -9.4303  -12.5149 C   0  0  0  0  0  0  0  0  0  0  0  0
   -9.0113  -10.0873  -13.6418 C   0  0  0  0  0  0  0  0  0  0  0  0
  -10.1463   -9.6044  -14.2761 C   0  0  0  0  0  0  0  0  0  0  0  0
  -10.7188   -8.4185  -13.8286 C   0  0  0  0  0  0  0  0  0  0  0  0
  -12.1425   -7.7822  -14.7268 S   0  0  0  0  0  0  0  0  0  0  0  0
  -11.5154   -7.2730  -15.9458 O   0  0  0  0  0  0  0  0  0  0  0  0
  -12.9472   -8.9902  -14.9132 O   0  0  0  0  0  0  0  0  0  0  0  0
  -12.7493   -6.7806  -13.8627 O   0  5  0  0  0  0  0  0  0  0  0  0
  -10.1921   -7.7586  -12.7237 C   0  0  0  0  0  0  0  0  0  0  0  0
  -10.6696   -6.5398  -12.4544 F   0  0  0  0  0  0  0  0  0  0  0  0
   -7.7894   -8.2121   -9.7256 C   0  0  0  0  0  0  0  0  0  0  0  0
   -7.3928   -7.5491   -8.5878 N   0  0  0  0  0  0  0  0  0  0  0  0
   -6.7802   -8.3662   -7.7710 C   0  0  0  0  0  0  0  0  0  0  0  0
   -6.4198   -8.0489   -6.3128 C   0  0  0  0  0  0  0  0  0  0  0  0
   -6.4022   -9.0367   -5.1855 C   0  0  0  0  0  0  0  0  0  0  0  0
   -5.5541   -8.7317   -4.0918 C   0  0  0  0  0  0  0  0  0  0  0  0
   -5.8943   -9.1235   -2.7957 C   0  0  0  0  0  0  0  0  0  0  0  0
   -7.0450   -9.8767   -2.5900 C   0  0  0  0  0  0  0  0  0  0  0  0
   -7.7908  -10.3310   -3.6896 C   0  0  0  0  0  0  0  0  0  0  0  0
   -9.2477  -11.3329   -3.3653 S   0  0  0  0  0  0  0  0  0  0  0  0
   -8.6885  -12.6809   -3.3852 O   0  0  0  0  0  0  0  0  0  0  0  0
   -9.6682  -10.8674   -2.0455 O   0  0  0  0  0  0  0  0  0  0  0  0
  -10.1741  -11.0034   -4.4388 O   0  5  0  0  0  0  0  0  0  0  0  0
   -7.4666   -9.9315   -4.9847 C   0  0  0  0  0  0  0  0  0  0  0  0
   -8.1865  -10.3282   -6.0414 F   0  0  0  0  0  0  0  0  0  0  0  0
   -6.8450   -6.8066   -5.9141 C   0  0  0  0  0  0  0  0  0  0  0  0
   -7.1013   -5.6999   -6.8152 C   0  0  0  0  0  0  0  0  0  0  0  0
   -8.4136   -5.4184   -6.7219 C   0  0  0  0  0  0  0  0  0  0  0  0
   -8.9781   -6.1746   -5.6120 C   0  0  0  0  0  0  0  0  0  0  0  0
   -7.8338   -6.6094   -4.9413 N   0  0  0  0  0  0  0  0  0  0  0  0
   -6.5405   -9.6651   -8.3948 C   0  0  0  0  0  0  0  0  0  0  0  0
   -7.1879   -9.5295   -9.5663 C   0  0  0  0  0  0  0  0  0  0  0  0
  -13.2858   -5.2105   -6.9009 C   0  0  0  0  0  0  0  0  0  0  0  0
  -12.7163   -5.6480   -5.7736 C   0  0  0  0  0  0  0  0  0  0  0  0
  -10.6031   -5.4911   -3.1806 C   0  0  0  0  0  0  0  0  0  0  0  0
  -10.7737   -5.6022   -1.8287 C   0  0  0  0  0  0  0  0  0  0  0  0
   -1.6804   -0.0850    0.2924 C   0  0  0  0  0  0  0  0  0  0  0  0
   -0.8670    1.0429    0.2252 C   0  0  0  0  0  0  0  0  0  0  0  0
    0.5355    0.9615    0.0799 C   0  0  0  0  0  0  0  0  0  0  0  0
    1.0423    2.2228    0.0205 O   0  0  0  0  0  0  0  0  0  0  0  0
    2.4088    2.6002    0.0038 C   0  0  0  0  0  0  0  0  0  0  0  0
    3.1247    2.2605    1.3096 C   0  0  0  0  0  0  0  0  0  0  0  0
    3.1008    2.2674   -1.3166 C   0  0  0  0  0  0  0  0  0  0  0  0
    2.6822   -1.7428   -0.1034 H   0  0  0  0  0  0  0  0  0  0  0  0
    3.1021   -0.2999    0.7880 H   0  0  0  0  0  0  0  0  0  0  0  0
    3.0113   -0.2537   -0.9563 H   0  0  0  0  0  0  0  0  0  0  0  0
    0.7088   -2.3808   -0.0606 H   0  0  0  0  0  0  0  0  0  0  0  0
   -3.8312   -1.6804    0.4988 H   0  0  0  0  0  0  0  0  0  0  0  0
   -3.5389   -0.7834   -1.5558 H   0  0  0  0  0  0  0  0  0  0  0  0
   -2.5832   -2.0523   -3.0069 H   0  0  0  0  0  0  0  0  0  0  0  0
   -4.2876   -2.0562   -3.5502 H   0  0  0  0  0  0  0  0  0  0  0  0
   -2.9802   -4.1310   -2.1610 H   0  0  0  0  0  0  0  0  0  0  0  0
   -7.3032   -2.4271   -0.9316 H   0  0  0  0  0  0  0  0  0  0  0  0
   -4.9649   -4.1745   -1.0636 H   0  0  0  0  0  0  0  0  0  0  0  0
   -6.6147   -4.6232   -1.5346 H   0  0  0  0  0  0  0  0  0  0  0  0
   -5.6466   -4.0220    1.2247 H   0  0  0  0  0  0  0  0  0  0  0  0
   -6.1453   -5.5996    0.5370 H   0  0  0  0  0  0  0  0  0  0  0  0
   -7.9214   -3.2821    1.0820 H   0  0  0  0  0  0  0  0  0  0  0  0
   -7.8035   -4.8074    1.9957 H   0  0  0  0  0  0  0  0  0  0  0  0
   -8.4659   -4.8800   -0.8633 H   0  0  0  0  0  0  0  0  0  0  0  0
   -9.7010   -4.4608    0.3523 H   0  0  0  0  0  0  0  0  0  0  0  0
   -8.3347   -6.8256    0.9709 H   0  0  0  0  0  0  0  0  0  0  0  0
  -11.3327   -8.8831   -1.6317 H   0  0  0  0  0  0  0  0  0  0  0  0
  -11.2548   -8.6581   -4.0644 H   0  0  0  0  0  0  0  0  0  0  0  0
  -11.7322   -2.8716  -11.0520 H   0  0  0  0  0  0  0  0  0  0  0  0
  -13.0287   -1.0435  -11.9372 H   0  0  0  0  0  0  0  0  0  0  0  0
  -15.2836   -0.6595  -11.1368 H   0  0  0  0  0  0  0  0  0  0  0  0
   -9.6700   -3.1623   -9.6695 H   0  0  0  0  0  0  0  0  0  0  0  0
   -7.6705   -4.7891  -10.2260 H   0  0  0  0  0  0  0  0  0  0  0  0
  -11.1596   -6.9905  -10.0929 H   0  0  0  0  0  0  0  0  0  0  0  0
   -7.6337   -9.7911  -12.0787 H   0  0  0  0  0  0  0  0  0  0  0  0
   -8.5434  -10.9341  -14.0009 H   0  0  0  0  0  0  0  0  0  0  0  0
  -10.5605  -10.1182  -15.0695 H   0  0  0  0  0  0  0  0  0  0  0  0
   -4.6760   -8.2147   -4.2551 H   0  0  0  0  0  0  0  0  0  0  0  0
   -5.2972   -8.8565   -1.9975 H   0  0  0  0  0  0  0  0  0  0  0  0
   -7.3505  -10.1015   -1.6302 H   0  0  0  0  0  0  0  0  0  0  0  0
   -6.4101   -5.2204   -7.4130 H   0  0  0  0  0  0  0  0  0  0  0  0
   -8.9347   -4.7729   -7.3357 H   0  0  0  0  0  0  0  0  0  0  0  0
   -7.7397   -6.7503   -3.9715 H   0  0  0  0  0  0  0  0  0  0  0  0
   -6.0129  -10.4745   -8.0320 H   0  0  0  0  0  0  0  0  0  0  0  0
   -7.2515  -10.2771  -10.2749 H   0  0  0  0  0  0  0  0  0  0  0  0
  -14.2564   -4.8673   -6.9727 H   0  0  0  0  0  0  0  0  0  0  0  0
  -13.1113   -5.7086   -4.8221 H   0  0  0  0  0  0  0  0  0  0  0  0
  -10.4550   -4.5662   -3.6138 H   0  0  0  0  0  0  0  0  0  0  0  0
  -10.8992   -4.7634   -1.2408 H   0  0  0  0  0  0  0  0  0  0  0  0
   -2.6975    0.0067    0.4413 H   0  0  0  0  0  0  0  0  0  0  0  0
   -1.3061    1.9750    0.2839 H   0  0  0  0  0  0  0  0  0  0  0  0
    2.4725    3.6683    0.0004 H   0  0  0  0  0  0  0  0  0  0  0  0
    3.1357    1.1991    1.4446 H   0  0  0  0  0  0  0  0  0  0  0  0
    2.6101    2.7188    2.1282 H   0  0  0  0  0  0  0  0  0  0  0  0
    4.1297    2.6256    1.2708 H   0  0  0  0  0  0  0  0  0  0  0  0
    3.1139    1.2065   -1.4549 H   0  0  0  0  0  0  0  0  0  0  0  0
    4.1048    2.6368   -1.2961 H   0  0  0  0  0  0  0  0  0  0  0  0
    2.5685    2.7258   -2.1237 H   0  0  0  0  0  0  0  0  0  0  0  0
  1  2  1  0  0  0  0
  1 92  1  0  0  0  0
  1 93  1  0  0  0  0
  1 94  1  0  0  0  0
  2  3  1  0  0  0  0
  2 87  2  0  0  0  0
  3  4  2  0  0  0  0
  3 95  1  0  0  0  0
  4  5  1  0  0  0  0
  4 85  1  0  0  0  0
  5  6  2  0  0  0  0
  5  7  2  0  0  0  0
  5  8  1  0  0  0  0
  8  9  1  0  0  0  0
  8 96  1  0  0  0  0
  9 10  1  0  0  0  0
  9 12  1  0  0  0  0
  9 97  1  6  0  0  0
 10 11  1  0  0  0  0
 10 98  1  0  0  0  0
 10 99  1  0  0  0  0
 11100  1  0  0  0  0
 12 13  2  0  0  0  0
 12 14  1  0  0  0  0
 14 15  1  0  0  0  0
 14101  1  0  0  0  0
 15 16  1  0  0  0  0
 15102  1  0  0  0  0
 15103  1  0  0  0  0
 16 17  1  0  0  0  0
 16104  1  0  0  0  0
 16105  1  0  0  0  0
 17 18  1  0  0  0  0
 17106  1  0  0  0  0
 17107  1  0  0  0  0
 18 19  1  0  0  0  0
 18108  1  0  0  0  0
 18109  1  0  0  0  0
 19 20  1  0  0  0  0
 19110  1  0  0  0  0
 20 21  2  0  0  0  0
 20 22  1  0  0  0  0
 22 23  1  0  0  0  0
 22 84  2  0  0  0  0
 23 24  2  0  0  0  0
 23111  1  0  0  0  0
 24 25  1  0  0  0  0
 24112  1  0  0  0  0
 25 26  1  0  0  0  0
 25 83  2  0  0  0  0
 26 27  1  0  0  0  0
 26 77  2  0  0  0  0
 27 28  2  0  0  0  0
 27 82  1  0  0  0  0
 28 29  1  0  0  0  0
 29 30  2  0  0  0  0
 29 81  1  0  0  0  0
 30 31  1  0  0  0  0
 30 42  1  0  0  0  0
 31 32  1  0  0  0  0
 31 40  2  0  0  0  0
 32 33  2  0  0  0  0
 32113  1  0  0  0  0
 33 34  1  0  0  0  0
 33114  1  0  0  0  0
 34 35  2  0  0  0  0
 34115  1  0  0  0  0
 35 36  1  0  0  0  0
 35 40  1  0  0  0  0
 36 37  2  0  0  0  0
 36 38  2  0  0  0  0
 36 39  1  0  0  0  0
 40 41  1  0  0  0  0
 42 43  2  0  0  0  0
 42 46  1  0  0  0  0
 43 44  1  0  0  0  0
 43116  1  0  0  0  0
 44 45  2  0  0  0  0
 44117  1  0  0  0  0
 45 46  1  0  0  0  0
 45 47  1  0  0  0  0
 46118  1  0  0  0  0
 47 48  1  0  0  0  0
 47 59  2  0  0  0  0
 48 49  1  0  0  0  0
 48 57  2  0  0  0  0
 49 50  2  0  0  0  0
 49119  1  0  0  0  0
 50 51  1  0  0  0  0
 50120  1  0  0  0  0
 51 52  2  0  0  0  0
 51121  1  0  0  0  0
 52 53  1  0  0  0  0
 52 57  1  0  0  0  0
 53 54  2  0  0  0  0
 53 55  2  0  0  0  0
 53 56  1  0  0  0  0
 57 58  1  0  0  0  0
 59 60  1  0  0  0  0
 59 80  1  0  0  0  0
 60 61  2  0  0  0  0
 61 62  1  0  0  0  0
 61 79  1  0  0  0  0
 62 63  1  0  0  0  0
 62 74  2  0  0  0  0
 63 64  1  0  0  0  0
 63 72  2  0  0  0  0
 64 65  2  0  0  0  0
 64122  1  0  0  0  0
 65 66  1  0  0  0  0
 65123  1  0  0  0  0
 66 67  2  0  0  0  0
 66124  1  0  0  0  0
 67 68  1  0  0  0  0
 67 72  1  0  0  0  0
 68 69  2  0  0  0  0
 68 70  2  0  0  0  0
 68 71  1  0  0  0  0
 72 73  1  0  0  0  0
 74 75  1  0  0  0  0
 74 78  1  0  0  0  0
 75 76  2  0  0  0  0
 75125  1  0  0  0  0
 76 77  1  0  0  0  0
 76126  1  0  0  0  0
 77 78  1  0  0  0  0
 78127  1  0  0  0  0
 79 80  2  0  0  0  0
 79128  1  0  0  0  0
 80129  1  0  0  0  0
 81 82  2  0  0  0  0
 81130  1  0  0  0  0
 82131  1  0  0  0  0
 83 84  1  0  0  0  0
 83132  1  0  0  0  0
 84133  1  0  0  0  0
 85 86  2  0  0  0  0
 85134  1  0  0  0  0
 86 87  1  0  0  0  0
 86135  1  0  0  0  0
 87 88  1  0  0  0  0
 88 89  1  0  0  0  0
 89 90  1  0  0  0  0
 89 91  1  0  0  0  0
 89136  1  0  0  0  0
 90137  1  0  0  0  0
 90138  1  0  0  0  0
 90139  1  0  0  0  0
 91140  1  0  0  0  0
 91141  1  0  0  0  0
 91142  1  0  0  0  0
M  CHG  3  39  -1  56  -1  71  -1
M  END
$$$$
