6_2_1668
 OpenBabel04152301373D

140151  0  0  1  0  0  0  0  0999 V2000
    5.6708    4.9042   -0.1896 O   0  0  0  0  0  0  0  0  0  0  0  0
    5.0438    3.8633   -0.0148 C   0  0  0  0  0  0  0  0  0  0  0  0
    5.0794    3.2354    1.2085 N   0  0  0  0  0  0  0  0  0  0  0  0
    4.6128    1.9015    1.5583 C   0  0  0  0  0  0  0  0  0  0  0  0
    5.7532    0.9591    1.9190 C   0  0  0  0  0  0  0  0  0  0  0  0
    6.5220    1.3697    3.1684 C   0  0  0  0  0  0  0  0  0  0  0  0
    5.6347    1.5052    4.3089 N   0  0  0  0  0  0  0  0  0  0  0  0
    5.3105    0.4673    5.1340 C   0  0  0  0  0  0  0  0  0  0  0  0
    4.1617    0.0229    5.0896 O   0  0  0  0  0  0  0  0  0  0  0  0
    6.3842   -0.1153    6.0519 C   0  0  1  0  0  0  0  0  0  0  0  0
    7.7905    0.4756    6.1188 C   0  0  0  0  0  0  0  0  0  0  0  0
    8.7370   -0.6875    6.4607 C   0  0  0  0  0  0  0  0  0  0  0  0
    8.3054   -1.4404    7.7435 C   0  0  2  0  0  0  0  0  0  0  0  0
    9.0796   -2.7433    7.9364 C   0  0  0  0  0  0  0  0  0  0  0  0
    8.7071   -3.7955    6.9053 C   0  0  0  0  0  0  0  0  0  0  0  0
    7.2140   -4.0707    6.7852 C   0  0  0  0  0  0  0  0  0  0  0  0
    6.2306   -2.9890    7.2275 C   0  0  0  0  0  0  0  0  0  0  0  0
    6.7810   -1.7048    7.8714 C   0  0  2  0  0  0  0  0  0  0  0  0
    6.0215   -0.5059    7.4381 N   0  0  0  0  0  0  0  0  0  0  0  0
    5.5324    0.2833    8.4535 C   0  0  0  0  0  0  0  0  0  0  0  0
    5.6311   -0.0554    9.6421 O   0  0  0  0  0  0  0  0  0  0  0  0
    4.9244    1.4777    8.2964 N   0  0  0  0  0  0  0  0  0  0  0  0
    4.4151    2.2401    7.2180 C   0  0  0  0  0  0  0  0  0  0  0  0
    3.7720    3.5851    7.4654 C   0  0  0  0  0  0  0  0  0  0  0  0
    5.1048    3.5118    6.7948 C   0  0  0  0  0  0  0  0  0  0  0  0
    4.2677    3.2498   -1.1102 C   0  0  0  0  0  0  0  0  0  0  0  0
    2.9782    2.7712   -0.8652 C   0  0  0  0  0  0  0  0  0  0  0  0
    2.3337    2.0097   -1.8287 C   0  0  0  0  0  0  0  0  0  0  0  0
    2.8989    1.8572   -3.1043 C   0  0  0  0  0  0  0  0  0  0  0  0
    2.1218    1.1644   -4.1607 C   0  0  0  0  0  0  0  0  0  0  0  0
    2.6304   -0.0852   -4.8196 C   0  0  0  0  0  0  0  0  0  0  0  0
    2.0803   -0.7893   -5.7749 N   0  0  0  0  0  0  0  0  0  0  0  0
    2.9791   -1.8074   -6.0674 C   0  0  0  0  0  0  0  0  0  0  0  0
    2.8609   -2.8030   -6.9789 C   0  0  0  0  0  0  0  0  0  0  0  0
    3.9955   -3.7888   -7.0946 C   0  0  0  0  0  0  0  0  0  0  0  0
    4.2023   -4.7413   -6.0761 C   0  0  0  0  0  0  0  0  0  0  0  0
    5.2346   -5.6746   -6.1736 C   0  0  0  0  0  0  0  0  0  0  0  0
    6.0381   -5.6946   -7.3105 C   0  0  0  0  0  0  0  0  0  0  0  0
    5.8238   -4.7691   -8.3444 C   0  0  0  0  0  0  0  0  0  0  0  0
    6.8588   -4.9188   -9.8057 S   0  0  0  0  0  0  0  0  0  0  0  0
    8.1112   -4.3244   -9.3419 O   0  0  0  0  0  0  0  0  0  0  0  0
    6.9101   -6.3681  -10.0043 O   0  0  0  0  0  0  0  0  0  0  0  0
    6.1660   -4.1903  -10.8591 O   0  5  0  0  0  0  0  0  0  0  0  0
    4.8227   -3.8097   -8.2354 C   0  0  0  0  0  0  0  0  0  0  0  0
    4.6283   -2.8836   -9.1851 F   0  0  0  0  0  0  0  0  0  0  0  0
    1.7097   -2.9879   -7.8238 C   0  0  0  0  0  0  0  0  0  0  0  0
    1.4547   -4.0130   -8.7179 C   0  0  0  0  0  0  0  0  0  0  0  0
    0.2323   -3.7511   -9.3468 C   0  0  0  0  0  0  0  0  0  0  0  0
   -0.2881   -2.5772   -8.8256 C   0  0  0  0  0  0  0  0  0  0  0  0
    0.6281   -2.1215   -7.8922 N   0  0  0  0  0  0  0  0  0  0  0  0
   -1.5215   -1.9153   -9.1706 C   0  0  0  0  0  0  0  0  0  0  0  0
   -2.3660   -2.5342  -10.2516 C   0  0  0  0  0  0  0  0  0  0  0  0
   -2.4019   -1.9466  -11.5315 C   0  0  0  0  0  0  0  0  0  0  0  0
   -3.1403   -2.5327  -12.5585 C   0  0  0  0  0  0  0  0  0  0  0  0
   -3.8065   -3.7341  -12.3271 C   0  0  0  0  0  0  0  0  0  0  0  0
   -3.7572   -4.3397  -11.0608 C   0  0  0  0  0  0  0  0  0  0  0  0
   -4.5667   -5.9330  -10.8814 S   0  0  0  0  0  0  0  0  0  0  0  0
   -5.9785   -5.5541  -10.9039 O   0  0  0  0  0  0  0  0  0  0  0  0
   -4.1080   -6.6496  -12.0718 O   0  0  0  0  0  0  0  0  0  0  0  0
   -4.0890   -6.4869   -9.6216 O   0  5  0  0  0  0  0  0  0  0  0  0
   -3.0625   -3.7361  -10.0200 C   0  0  0  0  0  0  0  0  0  0  0  0
   -3.0316   -4.2660   -8.7886 F   0  0  0  0  0  0  0  0  0  0  0  0
   -1.9709   -0.7651   -8.6115 C   0  0  0  0  0  0  0  0  0  0  0  0
   -1.3911    0.0030   -7.6113 N   0  0  0  0  0  0  0  0  0  0  0  0
   -2.1821    1.0354   -7.4477 C   0  0  0  0  0  0  0  0  0  0  0  0
   -2.0606    2.1645   -6.4701 C   0  0  0  0  0  0  0  0  0  0  0  0
   -3.0544    3.2706   -6.4117 C   0  0  0  0  0  0  0  0  0  0  0  0
   -4.3463    3.0216   -5.9142 C   0  0  0  0  0  0  0  0  0  0  0  0
   -5.2631    4.0641   -5.7739 C   0  0  0  0  0  0  0  0  0  0  0  0
   -4.8784    5.3678   -6.0793 C   0  0  0  0  0  0  0  0  0  0  0  0
   -3.5850    5.6292   -6.5558 C   0  0  0  0  0  0  0  0  0  0  0  0
   -3.1197    7.3509   -6.7720 S   0  0  0  0  0  0  0  0  0  0  0  0
   -3.8628    7.7116   -7.9763 O   0  0  0  0  0  0  0  0  0  0  0  0
   -3.6173    7.9556   -5.5356 O   0  0  0  0  0  0  0  0  0  0  0  0
   -1.6686    7.3532   -6.8973 O   0  5  0  0  0  0  0  0  0  0  0  0
   -2.6889    4.5877   -6.7565 C   0  0  0  0  0  0  0  0  0  0  0  0
   -1.4551    4.7988   -7.2366 F   0  0  0  0  0  0  0  0  0  0  0  0
   -1.0302    2.1647   -5.6047 C   0  0  0  0  0  0  0  0  0  0  0  0
   -0.7906    3.1911   -4.5985 C   0  0  0  0  0  0  0  0  0  0  0  0
    0.3812    2.9443   -4.0004 C   0  0  0  0  0  0  0  0  0  0  0  0
    0.9458    1.7029   -4.5381 C   0  0  0  0  0  0  0  0  0  0  0  0
    0.0239    1.2937   -5.4653 N   0  0  0  0  0  0  0  0  0  0  0  0
   -3.3481    1.0516   -8.3392 C   0  0  0  0  0  0  0  0  0  0  0  0
   -3.1952   -0.0905   -8.9969 C   0  0  0  0  0  0  0  0  0  0  0  0
    4.1146   -1.6295   -5.1871 C   0  0  0  0  0  0  0  0  0  0  0  0
    3.9268   -0.6085   -4.3607 C   0  0  0  0  0  0  0  0  0  0  0  0
    4.1449    2.4438   -3.3789 C   0  0  0  0  0  0  0  0  0  0  0  0
    4.8441    3.1161   -2.3740 C   0  0  0  0  0  0  0  0  0  0  0  0
    5.4725    3.7571    1.9451 H   0  0  0  0  0  0  0  0  0  0  0  0
    4.0823    1.4939    0.7233 H   0  0  0  0  0  0  0  0  0  0  0  0
    3.9832    1.9932    2.4186 H   0  0  0  0  0  0  0  0  0  0  0  0
    6.4377    0.9286    1.0971 H   0  0  0  0  0  0  0  0  0  0  0  0
    5.3144    0.0050    2.1241 H   0  0  0  0  0  0  0  0  0  0  0  0
    7.0052    2.3073    2.9886 H   0  0  0  0  0  0  0  0  0  0  0  0
    7.2429    0.6101    3.3879 H   0  0  0  0  0  0  0  0  0  0  0  0
    5.2471    2.3904    4.4969 H   0  0  0  0  0  0  0  0  0  0  0  0
    6.4281   -0.9726    5.4131 H   0  0  0  0  0  0  0  0  0  0  0  0
    7.8397    1.2277    6.8783 H   0  0  0  0  0  0  0  0  0  0  0  0
    8.0616    0.9353    5.1914 H   0  0  0  0  0  0  0  0  0  0  0  0
    9.7227   -0.2974    6.6061 H   0  0  0  0  0  0  0  0  0  0  0  0
    8.7073   -1.3828    5.6480 H   0  0  0  0  0  0  0  0  0  0  0  0
    8.5548   -0.7589    8.5298 H   0  0  0  0  0  0  0  0  0  0  0  0
    8.8676   -3.1279    8.9121 H   0  0  0  0  0  0  0  0  0  0  0  0
   10.1205   -2.5251    7.8191 H   0  0  0  0  0  0  0  0  0  0  0  0
    9.1939   -4.7102    7.1722 H   0  0  0  0  0  0  0  0  0  0  0  0
    9.0203   -3.4121    5.9567 H   0  0  0  0  0  0  0  0  0  0  0  0
    7.0066   -4.9428    7.3695 H   0  0  0  0  0  0  0  0  0  0  0  0
    7.0496   -4.1559    5.7313 H   0  0  0  0  0  0  0  0  0  0  0  0
    5.5681   -3.4378    7.9378 H   0  0  0  0  0  0  0  0  0  0  0  0
    5.7895   -2.6511    6.3131 H   0  0  0  0  0  0  0  0  0  0  0  0
    6.6333   -1.8935    8.9142 H   0  0  0  0  0  0  0  0  0  0  0  0
    4.8034    1.9398    9.1572 H   0  0  0  0  0  0  0  0  0  0  0  0
    4.1185    1.3353    6.7298 H   0  0  0  0  0  0  0  0  0  0  0  0
    3.6956    3.9657    8.4625 H   0  0  0  0  0  0  0  0  0  0  0  0
    2.8280    4.0270    7.2236 H   0  0  0  0  0  0  0  0  0  0  0  0
    5.1932    3.7506    5.7555 H   0  0  0  0  0  0  0  0  0  0  0  0
    6.0658    3.9452    6.9780 H   0  0  0  0  0  0  0  0  0  0  0  0
    2.5075    2.9833    0.0284 H   0  0  0  0  0  0  0  0  0  0  0  0
    1.4350    1.5534   -1.6068 H   0  0  0  0  0  0  0  0  0  0  0  0
    3.5838   -4.7482   -5.2500 H   0  0  0  0  0  0  0  0  0  0  0  0
    5.4016   -6.3460   -5.4078 H   0  0  0  0  0  0  0  0  0  0  0  0
    6.7940   -6.3923   -7.3936 H   0  0  0  0  0  0  0  0  0  0  0  0
    2.0614   -4.8297   -8.8910 H   0  0  0  0  0  0  0  0  0  0  0  0
   -0.2076   -4.3340  -10.0760 H   0  0  0  0  0  0  0  0  0  0  0  0
    0.5267   -1.3024   -7.3556 H   0  0  0  0  0  0  0  0  0  0  0  0
   -1.8777   -1.0758  -11.7102 H   0  0  0  0  0  0  0  0  0  0  0  0
   -3.1931   -2.0795  -13.4842 H   0  0  0  0  0  0  0  0  0  0  0  0
   -4.3388   -4.1813  -13.0898 H   0  0  0  0  0  0  0  0  0  0  0  0
   -4.6179    2.0614   -5.6512 H   0  0  0  0  0  0  0  0  0  0  0  0
   -6.2220    3.8702   -5.4453 H   0  0  0  0  0  0  0  0  0  0  0  0
   -5.5471    6.1439   -5.9546 H   0  0  0  0  0  0  0  0  0  0  0  0
   -1.4210    3.9791   -4.3824 H   0  0  0  0  0  0  0  0  0  0  0  0
    0.8181    3.5346   -3.2754 H   0  0  0  0  0  0  0  0  0  0  0  0
    0.1081    0.4589   -5.9804 H   0  0  0  0  0  0  0  0  0  0  0  0
   -4.0902    1.7629   -8.4303 H   0  0  0  0  0  0  0  0  0  0  0  0
   -3.8634   -0.4530   -9.6948 H   0  0  0  0  0  0  0  0  0  0  0  0
    4.9606   -2.2203   -5.2006 H   0  0  0  0  0  0  0  0  0  0  0  0
    4.5317   -0.2700   -3.5962 H   0  0  0  0  0  0  0  0  0  0  0  0
    4.5458    2.3778   -4.3276 H   0  0  0  0  0  0  0  0  0  0  0  0
    5.7786    3.5104   -2.5644 H   0  0  0  0  0  0  0  0  0  0  0  0
  1  2  2  0  0  0  0
  2  3  1  0  0  0  0
  2 26  1  0  0  0  0
  3  4  1  0  0  0  0
  3 89  1  0  0  0  0
  4  5  1  0  0  0  0
  4 90  1  0  0  0  0
  4 91  1  0  0  0  0
  5  6  1  0  0  0  0
  5 92  1  0  0  0  0
  5 93  1  0  0  0  0
  6  7  1  0  0  0  0
  6 94  1  0  0  0  0
  6 95  1  0  0  0  0
  7  8  1  0  0  0  0
  7 96  1  0  0  0  0
  8  9  2  0  0  0  0
 10 11  1  0  0  0  0
 10 19  1  0  0  0  0
 10  8  1  0  0  0  0
 10 97  1  6  0  0  0
 11 12  1  0  0  0  0
 11 98  1  0  0  0  0
 11 99  1  0  0  0  0
 12 13  1  0  0  0  0
 12100  1  0  0  0  0
 12101  1  0  0  0  0
 13 14  1  0  0  0  0
 13 18  1  0  0  0  0
 13102  1  1  0  0  0
 14 15  1  0  0  0  0
 14103  1  0  0  0  0
 14104  1  0  0  0  0
 15 16  1  0  0  0  0
 15105  1  0  0  0  0
 15106  1  0  0  0  0
 16 17  1  0  0  0  0
 16107  1  0  0  0  0
 16108  1  0  0  0  0
 17 18  1  0  0  0  0
 17109  1  0  0  0  0
 17110  1  0  0  0  0
 18 19  1  0  0  0  0
 18111  1  1  0  0  0
 19 20  1  0  0  0  0
 20 21  2  0  0  0  0
 20 22  1  0  0  0  0
 22 23  1  0  0  0  0
 22112  1  0  0  0  0
 23 24  1  0  0  0  0
 23 25  1  0  0  0  0
 23113  1  0  0  0  0
 24 25  1  0  0  0  0
 24114  1  0  0  0  0
 24115  1  0  0  0  0
 25116  1  0  0  0  0
 25117  1  0  0  0  0
 26 27  1  0  0  0  0
 26 88  2  0  0  0  0
 27 28  2  0  0  0  0
 27118  1  0  0  0  0
 28 29  1  0  0  0  0
 28119  1  0  0  0  0
 29 30  1  0  0  0  0
 29 87  2  0  0  0  0
 30 31  1  0  0  0  0
 30 81  2  0  0  0  0
 31 32  2  0  0  0  0
 31 86  1  0  0  0  0
 32 33  1  0  0  0  0
 33 34  2  0  0  0  0
 33 85  1  0  0  0  0
 34 35  1  0  0  0  0
 34 46  1  0  0  0  0
 35 36  1  0  0  0  0
 35 44  2  0  0  0  0
 36 37  2  0  0  0  0
 36120  1  0  0  0  0
 37 38  1  0  0  0  0
 37121  1  0  0  0  0
 38 39  2  0  0  0  0
 38122  1  0  0  0  0
 39 40  1  0  0  0  0
 39 44  1  0  0  0  0
 40 41  2  0  0  0  0
 40 42  2  0  0  0  0
 40 43  1  0  0  0  0
 44 45  1  0  0  0  0
 46 47  2  0  0  0  0
 46 50  1  0  0  0  0
 47 48  1  0  0  0  0
 47123  1  0  0  0  0
 48 49  2  0  0  0  0
 48124  1  0  0  0  0
 49 50  1  0  0  0  0
 49 51  1  0  0  0  0
 50125  1  0  0  0  0
 51 52  1  0  0  0  0
 51 63  2  0  0  0  0
 52 53  1  0  0  0  0
 52 61  2  0  0  0  0
 53 54  2  0  0  0  0
 53126  1  0  0  0  0
 54 55  1  0  0  0  0
 54127  1  0  0  0  0
 55 56  2  0  0  0  0
 55128  1  0  0  0  0
 56 57  1  0  0  0  0
 56 61  1  0  0  0  0
 57 58  2  0  0  0  0
 57 59  2  0  0  0  0
 57 60  1  0  0  0  0
 61 62  1  0  0  0  0
 63 64  1  0  0  0  0
 63 84  1  0  0  0  0
 64 65  2  0  0  0  0
 65 66  1  0  0  0  0
 65 83  1  0  0  0  0
 66 67  1  0  0  0  0
 66 78  2  0  0  0  0
 67 68  1  0  0  0  0
 67 76  2  0  0  0  0
 68 69  2  0  0  0  0
 68129  1  0  0  0  0
 69 70  1  0  0  0  0
 69130  1  0  0  0  0
 70 71  2  0  0  0  0
 70131  1  0  0  0  0
 71 72  1  0  0  0  0
 71 76  1  0  0  0  0
 72 73  2  0  0  0  0
 72 74  2  0  0  0  0
 72 75  1  0  0  0  0
 76 77  1  0  0  0  0
 78 79  1  0  0  0  0
 78 82  1  0  0  0  0
 79 80  2  0  0  0  0
 79132  1  0  0  0  0
 80 81  1  0  0  0  0
 80133  1  0  0  0  0
 81 82  1  0  0  0  0
 82134  1  0  0  0  0
 83 84  2  0  0  0  0
 83135  1  0  0  0  0
 84136  1  0  0  0  0
 85 86  2  0  0  0  0
 85137  1  0  0  0  0
 86138  1  0  0  0  0
 87 88  1  0  0  0  0
 87139  1  0  0  0  0
 88140  1  0  0  0  0
M  CHG  3  43  -1  60  -1  75  -1
M  END
$$$$
