6_2_2791
 OpenBabel04152301373D

143154  0  0  0  0  0  0  0  0999 V2000
    0.0487   -0.1967   -0.0681 C   0  0  0  0  0  0  0  0  0  0  0  0
    0.5081   -1.5362    0.1194 O   0  0  0  0  0  0  0  0  0  0  0  0
    0.8158   -2.1541   -1.0677 C   0  0  0  0  0  0  0  0  0  0  0  0
   -0.2341   -2.8541   -1.6957 C   0  0  0  0  0  0  0  0  0  0  0  0
    0.0152   -3.6663   -2.8056 C   0  0  0  0  0  0  0  0  0  0  0  0
   -1.0292   -4.5315   -3.3706 C   0  0  0  0  0  0  0  0  0  0  0  0
   -2.2103   -4.1421   -3.8154 N   0  0  0  0  0  0  0  0  0  0  0  0
   -2.8740   -5.2432   -4.3125 N   0  0  0  0  0  0  0  0  0  0  0  0
   -2.1035   -6.2933   -4.1396 C   0  0  0  0  0  0  0  0  0  0  0  0
   -2.5984   -7.9336   -4.4145 S   0  0  0  0  0  0  0  0  0  0  0  0
   -0.9170   -5.9102   -3.5571 N   0  0  0  0  0  0  0  0  0  0  0  0
    0.0963   -6.7440   -3.0469 C   0  0  0  0  0  0  0  0  0  0  0  0
    0.8323   -7.5891   -3.8809 C   0  0  0  0  0  0  0  0  0  0  0  0
    1.8618   -8.3566   -3.3239 C   0  0  0  0  0  0  0  0  0  0  0  0
    2.1314   -8.3087   -1.9446 C   0  0  0  0  0  0  0  0  0  0  0  0
    3.2808   -9.1012   -1.4258 C   0  0  0  0  0  0  0  0  0  0  0  0
    3.7203  -10.0206   -2.1124 O   0  0  0  0  0  0  0  0  0  0  0  0
    3.9150   -8.8197   -0.2393 N   0  0  0  0  0  0  0  0  0  0  0  0
    3.7821   -7.7133    0.6961 C   0  0  0  0  0  0  0  0  0  0  0  0
    2.8572   -8.0464    1.8775 C   0  0  0  0  0  0  0  0  0  0  0  0
    3.5735   -8.7970    2.9808 C   0  0  0  0  0  0  0  0  0  0  0  0
    4.5619   -7.9573    3.6747 N   0  0  0  0  0  0  0  0  0  0  0  0
    5.4971   -8.3266    4.6206 C   0  0  0  0  0  0  0  0  0  0  0  0
    5.9963   -7.4801    5.3694 O   0  0  0  0  0  0  0  0  0  0  0  0
    5.8934   -9.7380    4.7148 C   0  0  0  0  0  0  0  0  0  0  0  0
    6.1932  -10.3684    5.9252 C   0  0  0  0  0  0  0  0  0  0  0  0
    6.4435  -11.7384    5.9096 C   0  0  0  0  0  0  0  0  0  0  0  0
    6.2448  -12.4493    4.7152 C   0  0  0  0  0  0  0  0  0  0  0  0
    6.3655  -13.8925    4.6245 C   0  0  0  0  0  0  0  0  0  0  0  0
    5.4768  -14.6063    5.5650 C   0  0  0  0  0  0  0  0  0  0  0  0
    5.8282  -15.1760    6.6674 N   0  0  0  0  0  0  0  0  0  0  0  0
    4.6645  -15.7456    7.1679 C   0  0  0  0  0  0  0  0  0  0  0  0
    4.7105  -16.9345    7.8306 C   0  0  0  0  0  0  0  0  0  0  0  0
    3.6178  -17.9807    7.8415 C   0  0  0  0  0  0  0  0  0  0  0  0
    3.8269  -19.0998    8.6799 C   0  0  0  0  0  0  0  0  0  0  0  0
    3.0899  -20.2780    8.5329 C   0  0  0  0  0  0  0  0  0  0  0  0
    2.0680  -20.3404    7.5957 C   0  0  0  0  0  0  0  0  0  0  0  0
    1.7874  -19.2233    6.8076 C   0  0  0  0  0  0  0  0  0  0  0  0
    0.4258  -19.3472    5.6393 S   0  0  0  0  0  0  0  0  0  0  0  0
    0.9607  -20.2976    4.6688 O   0  0  0  0  0  0  0  0  0  0  0  0
   -0.6471  -19.8631    6.4894 O   0  0  0  0  0  0  0  0  0  0  0  0
    0.2003  -17.9935    5.1485 O   0  5  0  0  0  0  0  0  0  0  0  0
    2.5671  -18.0763    6.9011 C   0  0  0  0  0  0  0  0  0  0  0  0
    2.3813  -17.1168    5.9942 F   0  0  0  0  0  0  0  0  0  0  0  0
    6.0772  -17.2930    8.1425 C   0  0  0  0  0  0  0  0  0  0  0  0
    7.1122  -16.6862    8.8273 C   0  0  0  0  0  0  0  0  0  0  0  0
    8.2755  -16.9634    8.0503 C   0  0  0  0  0  0  0  0  0  0  0  0
    7.9097  -17.8012    6.9946 C   0  0  0  0  0  0  0  0  0  0  0  0
    6.6605  -18.2446    7.3368 N   0  0  0  0  0  0  0  0  0  0  0  0
    8.5740  -18.1477    5.7563 C   0  0  0  0  0  0  0  0  0  0  0  0
   10.0198  -17.7266    5.6396 C   0  0  0  0  0  0  0  0  0  0  0  0
   10.4420  -16.6576    4.8200 C   0  0  0  0  0  0  0  0  0  0  0  0
   11.7599  -16.1922    4.8679 C   0  0  0  0  0  0  0  0  0  0  0  0
   12.6553  -16.7591    5.7710 C   0  0  0  0  0  0  0  0  0  0  0  0
   12.2393  -17.8096    6.6036 C   0  0  0  0  0  0  0  0  0  0  0  0
   13.3934  -18.4123    7.8367 S   0  0  0  0  0  0  0  0  0  0  0  0
   14.2980  -19.2309    7.0325 O   0  0  0  0  0  0  0  0  0  0  0  0
   13.9811  -17.1736    8.3499 O   0  0  0  0  0  0  0  0  0  0  0  0
   12.5924  -19.1383    8.8150 O   0  5  0  0  0  0  0  0  0  0  0  0
   10.9447  -18.3058    6.5227 C   0  0  0  0  0  0  0  0  0  0  0  0
   10.5287  -19.3183    7.2987 F   0  0  0  0  0  0  0  0  0  0  0  0
    7.9464  -18.6208    4.6387 C   0  0  0  0  0  0  0  0  0  0  0  0
    8.5388  -18.5144    3.3868 N   0  0  0  0  0  0  0  0  0  0  0  0
    7.5324  -18.3555    2.5730 C   0  0  0  0  0  0  0  0  0  0  0  0
    7.5320  -17.3597    1.4744 C   0  0  0  0  0  0  0  0  0  0  0  0
    7.2710  -17.7462    0.0655 C   0  0  0  0  0  0  0  0  0  0  0  0
    7.6328  -19.0307   -0.3925 C   0  0  0  0  0  0  0  0  0  0  0  0
    7.1268  -19.5412   -1.5965 C   0  0  0  0  0  0  0  0  0  0  0  0
    6.2589  -18.7728   -2.3665 C   0  0  0  0  0  0  0  0  0  0  0  0
    5.9122  -17.4846   -1.9427 C   0  0  0  0  0  0  0  0  0  0  0  0
    4.7539  -16.5640   -2.9651 S   0  0  0  0  0  0  0  0  0  0  0  0
    5.3533  -16.6933   -4.2938 O   0  0  0  0  0  0  0  0  0  0  0  0
    3.5182  -17.3189   -2.7741 O   0  0  0  0  0  0  0  0  0  0  0  0
    4.7536  -15.2073   -2.4349 O   0  5  0  0  0  0  0  0  0  0  0  0
    6.4108  -16.9743   -0.7464 C   0  0  0  0  0  0  0  0  0  0  0  0
    6.0042  -15.7794   -0.2990 F   0  0  0  0  0  0  0  0  0  0  0  0
    7.5465  -16.1339    2.0586 C   0  0  0  0  0  0  0  0  0  0  0  0
    7.8839  -14.8392    1.5006 C   0  0  0  0  0  0  0  0  0  0  0  0
    7.6798  -13.8943    2.4452 C   0  0  0  0  0  0  0  0  0  0  0  0
    7.0386  -14.5027    3.6219 C   0  0  0  0  0  0  0  0  0  0  0  0
    7.1654  -15.8299    3.3640 N   0  0  0  0  0  0  0  0  0  0  0  0
    6.2459  -18.8192    3.0682 C   0  0  0  0  0  0  0  0  0  0  0  0
    6.5380  -18.9169    4.3692 C   0  0  0  0  0  0  0  0  0  0  0  0
    3.5806  -15.0635    6.5141 C   0  0  0  0  0  0  0  0  0  0  0  0
    4.0207  -14.4873    5.3922 C   0  0  0  0  0  0  0  0  0  0  0  0
    5.8310  -11.8104    3.5637 C   0  0  0  0  0  0  0  0  0  0  0  0
    5.9038  -10.4536    3.5255 C   0  0  0  0  0  0  0  0  0  0  0  0
    1.2977   -7.5403   -1.1324 C   0  0  0  0  0  0  0  0  0  0  0  0
    0.3164   -6.7227   -1.6735 C   0  0  0  0  0  0  0  0  0  0  0  0
    1.3116   -3.6912   -3.3266 C   0  0  0  0  0  0  0  0  0  0  0  0
    2.3710   -3.0057   -2.7085 C   0  0  0  0  0  0  0  0  0  0  0  0
    3.5527   -3.2144   -3.3767 O   0  0  0  0  0  0  0  0  0  0  0  0
    4.7557   -2.6598   -2.8676 C   0  0  0  0  0  0  0  0  0  0  0  0
    2.1406   -2.2520   -1.5391 C   0  0  0  0  0  0  0  0  0  0  0  0
    3.2536   -1.7545   -0.9237 O   0  0  0  0  0  0  0  0  0  0  0  0
    3.1726   -0.7219    0.0379 C   0  0  0  0  0  0  0  0  0  0  0  0
   -0.1769    0.2393    0.8826 H   0  0  0  0  0  0  0  0  0  0  0  0
   -0.8322   -0.2035   -0.6755 H   0  0  0  0  0  0  0  0  0  0  0  0
    0.8111    0.3774   -0.5519 H   0  0  0  0  0  0  0  0  0  0  0  0
   -1.1961   -2.7661   -1.3326 H   0  0  0  0  0  0  0  0  0  0  0  0
   -3.8224   -7.9445   -5.0071 H   0  0  0  0  0  0  0  0  0  0  0  0
    0.6208   -7.6465   -4.8894 H   0  0  0  0  0  0  0  0  0  0  0  0
    2.4302   -8.9654   -3.9332 H   0  0  0  0  0  0  0  0  0  0  0  0
    4.5834   -9.4916    0.0271 H   0  0  0  0  0  0  0  0  0  0  0  0
    3.3812   -6.8696    0.1743 H   0  0  0  0  0  0  0  0  0  0  0  0
    4.7538   -7.5062    1.0934 H   0  0  0  0  0  0  0  0  0  0  0  0
    2.0487   -8.6497    1.5209 H   0  0  0  0  0  0  0  0  0  0  0  0
    2.5072   -7.1220    2.2872 H   0  0  0  0  0  0  0  0  0  0  0  0
    4.0764   -9.6394    2.5539 H   0  0  0  0  0  0  0  0  0  0  0  0
    2.8412   -9.1026    3.6986 H   0  0  0  0  0  0  0  0  0  0  0  0
    4.5557   -7.0033    3.4318 H   0  0  0  0  0  0  0  0  0  0  0  0
    6.2282   -9.8333    6.8069 H   0  0  0  0  0  0  0  0  0  0  0  0
    6.7692  -12.2224    6.7608 H   0  0  0  0  0  0  0  0  0  0  0  0
    4.5434  -19.0451    9.4207 H   0  0  0  0  0  0  0  0  0  0  0  0
    3.3048  -21.0994    9.1195 H   0  0  0  0  0  0  0  0  0  0  0  0
    1.5193  -21.2071    7.4824 H   0  0  0  0  0  0  0  0  0  0  0  0
    7.0560  -16.1503    9.7074 H   0  0  0  0  0  0  0  0  0  0  0  0
    9.2255  -16.6059    8.2364 H   0  0  0  0  0  0  0  0  0  0  0  0
    6.2512  -19.0948    7.0560 H   0  0  0  0  0  0  0  0  0  0  0  0
    9.7686  -16.2133    4.1764 H   0  0  0  0  0  0  0  0  0  0  0  0
   12.0666  -15.4341    4.2384 H   0  0  0  0  0  0  0  0  0  0  0  0
   13.6238  -16.4072    5.8281 H   0  0  0  0  0  0  0  0  0  0  0  0
    8.2814  -19.6048    0.1686 H   0  0  0  0  0  0  0  0  0  0  0  0
    7.3978  -20.4859   -1.9113 H   0  0  0  0  0  0  0  0  0  0  0  0
    5.8728  -19.1509   -3.2457 H   0  0  0  0  0  0  0  0  0  0  0  0
    8.2236  -14.6675    0.5413 H   0  0  0  0  0  0  0  0  0  0  0  0
    7.9347  -12.8983    2.3551 H   0  0  0  0  0  0  0  0  0  0  0  0
    7.0012  -16.5219    4.0448 H   0  0  0  0  0  0  0  0  0  0  0  0
    5.3669  -19.0150    2.5641 H   0  0  0  0  0  0  0  0  0  0  0  0
    5.8521  -19.1709    5.0972 H   0  0  0  0  0  0  0  0  0  0  0  0
    2.6089  -15.0249    6.8596 H   0  0  0  0  0  0  0  0  0  0  0  0
    3.4845  -14.0713    4.6148 H   0  0  0  0  0  0  0  0  0  0  0  0
    5.4770  -12.3467    2.7562 H   0  0  0  0  0  0  0  0  0  0  0  0
    5.9662   -9.9604    2.6211 H   0  0  0  0  0  0  0  0  0  0  0  0
    1.4132   -7.5808   -0.1077 H   0  0  0  0  0  0  0  0  0  0  0  0
   -0.2437   -6.1060   -1.0644 H   0  0  0  0  0  0  0  0  0  0  0  0
    1.4959   -4.2276   -4.1887 H   0  0  0  0  0  0  0  0  0  0  0  0
    5.5695   -2.9217   -3.5110 H   0  0  0  0  0  0  0  0  0  0  0  0
    4.9387   -3.0450   -1.8862 H   0  0  0  0  0  0  0  0  0  0  0  0
    4.6659   -1.5946   -2.8217 H   0  0  0  0  0  0  0  0  0  0  0  0
    4.1547   -0.4851    0.3905 H   0  0  0  0  0  0  0  0  0  0  0  0
    2.5673   -1.0456    0.8587 H   0  0  0  0  0  0  0  0  0  0  0  0
    2.7345    0.1467   -0.4076 H   0  0  0  0  0  0  0  0  0  0  0  0
  1  2  1  0  0  0  0
  1 97  1  0  0  0  0
  1 98  1  0  0  0  0
  1 99  1  0  0  0  0
  2  3  1  0  0  0  0
  3  4  1  0  0  0  0
  3 94  2  0  0  0  0
  4  5  2  0  0  0  0
  4100  1  0  0  0  0
  5  6  1  0  0  0  0
  5 90  1  0  0  0  0
  6  7  2  0  0  0  0
  6 11  1  0  0  0  0
  7  8  1  0  0  0  0
  8  9  2  0  0  0  0
  9 10  1  0  0  0  0
  9 11  1  0  0  0  0
 10101  1  0  0  0  0
 11 12  1  0  0  0  0
 12 13  1  0  0  0  0
 12 89  2  0  0  0  0
 13 14  2  0  0  0  0
 13102  1  0  0  0  0
 14 15  1  0  0  0  0
 14103  1  0  0  0  0
 15 16  1  0  0  0  0
 15 88  2  0  0  0  0
 16 17  2  0  0  0  0
 16 18  1  0  0  0  0
 18 19  1  0  0  0  0
 18104  1  0  0  0  0
 19 20  1  0  0  0  0
 19105  1  0  0  0  0
 19106  1  0  0  0  0
 20 21  1  0  0  0  0
 20107  1  0  0  0  0
 20108  1  0  0  0  0
 21 22  1  0  0  0  0
 21109  1  0  0  0  0
 21110  1  0  0  0  0
 22 23  1  0  0  0  0
 22111  1  0  0  0  0
 23 24  2  0  0  0  0
 23 25  1  0  0  0  0
 25 26  1  0  0  0  0
 25 87  2  0  0  0  0
 26 27  2  0  0  0  0
 26112  1  0  0  0  0
 27 28  1  0  0  0  0
 27113  1  0  0  0  0
 28 29  1  0  0  0  0
 28 86  2  0  0  0  0
 29 30  1  0  0  0  0
 29 80  2  0  0  0  0
 30 31  2  0  0  0  0
 30 85  1  0  0  0  0
 31 32  1  0  0  0  0
 32 33  2  0  0  0  0
 32 84  1  0  0  0  0
 33 34  1  0  0  0  0
 33 45  1  0  0  0  0
 34 35  1  0  0  0  0
 34 43  2  0  0  0  0
 35 36  2  0  0  0  0
 35114  1  0  0  0  0
 36 37  1  0  0  0  0
 36115  1  0  0  0  0
 37 38  2  0  0  0  0
 37116  1  0  0  0  0
 38 39  1  0  0  0  0
 38 43  1  0  0  0  0
 39 40  2  0  0  0  0
 39 41  2  0  0  0  0
 39 42  1  0  0  0  0
 43 44  1  0  0  0  0
 45 46  2  0  0  0  0
 45 49  1  0  0  0  0
 46 47  1  0  0  0  0
 46117  1  0  0  0  0
 47 48  2  0  0  0  0
 47118  1  0  0  0  0
 48 49  1  0  0  0  0
 48 50  1  0  0  0  0
 49119  1  0  0  0  0
 50 51  1  0  0  0  0
 50 62  2  0  0  0  0
 51 52  1  0  0  0  0
 51 60  2  0  0  0  0
 52 53  2  0  0  0  0
 52120  1  0  0  0  0
 53 54  1  0  0  0  0
 53121  1  0  0  0  0
 54 55  2  0  0  0  0
 54122  1  0  0  0  0
 55 56  1  0  0  0  0
 55 60  1  0  0  0  0
 56 57  2  0  0  0  0
 56 58  2  0  0  0  0
 56 59  1  0  0  0  0
 60 61  1  0  0  0  0
 62 63  1  0  0  0  0
 62 83  1  0  0  0  0
 63 64  2  0  0  0  0
 64 65  1  0  0  0  0
 64 82  1  0  0  0  0
 65 66  1  0  0  0  0
 65 77  2  0  0  0  0
 66 67  1  0  0  0  0
 66 75  2  0  0  0  0
 67 68  2  0  0  0  0
 67123  1  0  0  0  0
 68 69  1  0  0  0  0
 68124  1  0  0  0  0
 69 70  2  0  0  0  0
 69125  1  0  0  0  0
 70 71  1  0  0  0  0
 70 75  1  0  0  0  0
 71 72  2  0  0  0  0
 71 73  2  0  0  0  0
 71 74  1  0  0  0  0
 75 76  1  0  0  0  0
 77 78  1  0  0  0  0
 77 81  1  0  0  0  0
 78 79  2  0  0  0  0
 78126  1  0  0  0  0
 79 80  1  0  0  0  0
 79127  1  0  0  0  0
 80 81  1  0  0  0  0
 81128  1  0  0  0  0
 82 83  2  0  0  0  0
 82129  1  0  0  0  0
 83130  1  0  0  0  0
 84 85  2  0  0  0  0
 84131  1  0  0  0  0
 85132  1  0  0  0  0
 86 87  1  0  0  0  0
 86133  1  0  0  0  0
 87134  1  0  0  0  0
 88 89  1  0  0  0  0
 88135  1  0  0  0  0
 89136  1  0  0  0  0
 90 91  2  0  0  0  0
 90137  1  0  0  0  0
 91 92  1  0  0  0  0
 91 94  1  0  0  0  0
 92 93  1  0  0  0  0
 93138  1  0  0  0  0
 93139  1  0  0  0  0
 93140  1  0  0  0  0
 94 95  1  0  0  0  0
 95 96  1  0  0  0  0
 96141  1  0  0  0  0
 96142  1  0  0  0  0
 96143  1  0  0  0  0
M  CHG  3  42  -1  59  -1  74  -1
M  END
$$$$
