6_2_9380
 OpenBabel04152301363D

139148  0  0  1  0  0  0  0  0999 V2000
    1.1756   -3.4215   -4.2461 C   0  0  0  0  0  0  0  0  0  0  0  0
    1.0549   -2.8835   -2.8309 C   0  0  0  0  0  0  0  0  0  0  0  0
    1.6848   -3.7848   -1.7550 C   0  0  1  0  0  0  0  0  0  0  0  0
    3.1993   -3.6953   -1.9668 C   0  0  0  0  0  0  0  0  0  0  0  0
    1.0791   -3.4097   -0.3538 C   0  0  2  0  0  0  0  0  0  0  0  0
    1.3423   -2.0267    0.0458 N   0  0  0  0  0  0  0  0  0  0  0  0
    0.5211   -0.9761    0.2945 C   0  0  0  0  0  0  0  0  0  0  0  0
    1.0771    0.0967    0.5519 O   0  0  0  0  0  0  0  0  0  0  0  0
   -0.9995   -1.0612    0.3498 C   0  0  0  0  0  0  0  0  0  0  0  0
   -1.7759   -1.2806   -0.9600 C   0  0  0  0  0  0  0  0  0  0  0  0
   -2.2761   -2.6918   -1.2279 C   0  0  0  0  0  0  0  0  0  0  0  0
   -2.3172   -3.1710   -2.5511 C   0  0  0  0  0  0  0  0  0  0  0  0
   -2.4373   -4.5397   -2.8078 C   0  0  0  0  0  0  0  0  0  0  0  0
   -2.6211   -5.4200   -1.7502 C   0  0  0  0  0  0  0  0  0  0  0  0
   -2.6545   -6.7379   -1.9898 F   0  0  0  0  0  0  0  0  0  0  0  0
   -2.7579   -4.9368   -0.4576 C   0  0  0  0  0  0  0  0  0  0  0  0
   -2.9834   -5.7802    0.5583 F   0  0  0  0  0  0  0  0  0  0  0  0
   -2.6112   -3.5772   -0.1929 C   0  0  0  0  0  0  0  0  0  0  0  0
    1.2637   -4.4441    0.7916 C   0  0  0  0  0  0  0  0  0  0  0  0
    0.3204   -5.1465    1.1678 O   0  0  0  0  0  0  0  0  0  0  0  0
    2.4649   -4.6312    1.4035 N   0  0  0  0  0  0  0  0  0  0  0  0
    3.7314   -4.0852    1.0064 C   0  0  0  0  0  0  0  0  0  0  0  0
    4.5654   -3.5285    2.1228 C   0  0  0  0  0  0  0  0  0  0  0  0
    5.2431   -4.6165    2.9201 C   0  0  0  0  0  0  0  0  0  0  0  0
    6.1321   -5.4499    2.1038 N   0  0  0  0  0  0  0  0  0  0  0  0
    7.5029   -5.4976    2.0460 C   0  0  0  0  0  0  0  0  0  0  0  0
    8.0578   -6.1035    1.1272 O   0  0  0  0  0  0  0  0  0  0  0  0
    8.2977   -4.8166    3.0821 C   0  0  0  0  0  0  0  0  0  0  0  0
    9.4976   -4.1849    2.7538 C   0  0  0  0  0  0  0  0  0  0  0  0
   10.1858   -3.4792    3.7415 C   0  0  0  0  0  0  0  0  0  0  0  0
    9.6241   -3.3241    5.0201 C   0  0  0  0  0  0  0  0  0  0  0  0
   10.3270   -2.6136    6.1116 C   0  0  0  0  0  0  0  0  0  0  0  0
   10.6140   -3.3420    7.4022 C   0  0  0  0  0  0  0  0  0  0  0  0
   11.1570   -2.8894    8.5010 N   0  0  0  0  0  0  0  0  0  0  0  0
   11.0920   -3.9372    9.4124 C   0  0  0  0  0  0  0  0  0  0  0  0
   11.6236   -4.0188   10.6536 C   0  0  0  0  0  0  0  0  0  0  0  0
   11.4541   -5.3179   11.3998 C   0  0  0  0  0  0  0  0  0  0  0  0
   12.1022   -6.4826   10.9337 C   0  0  0  0  0  0  0  0  0  0  0  0
   11.9339   -7.7030   11.5857 C   0  0  0  0  0  0  0  0  0  0  0  0
   11.1689   -7.7572   12.7464 C   0  0  0  0  0  0  0  0  0  0  0  0
   10.5538   -6.5965   13.2445 C   0  0  0  0  0  0  0  0  0  0  0  0
    9.6624   -6.7556   14.7951 S   0  0  0  0  0  0  0  0  0  0  0  0
    8.5053   -7.5527   14.3898 O   0  0  0  0  0  0  0  0  0  0  0  0
   10.6295   -7.4664   15.6319 O   0  0  0  0  0  0  0  0  0  0  0  0
    9.3645   -5.3981   15.2289 O   0  5  0  0  0  0  0  0  0  0  0  0
   10.6720   -5.3878   12.5677 C   0  0  0  0  0  0  0  0  0  0  0  0
   10.0425   -4.2800   12.9839 F   0  0  0  0  0  0  0  0  0  0  0  0
   12.3816   -2.9600   11.2553 C   0  0  0  0  0  0  0  0  0  0  0  0
   13.0428   -2.9540   12.4684 C   0  0  0  0  0  0  0  0  0  0  0  0
   13.6254   -1.6934   12.6362 C   0  0  0  0  0  0  0  0  0  0  0  0
   13.3588   -0.9297   11.5098 C   0  0  0  0  0  0  0  0  0  0  0  0
   12.5818   -1.7146   10.6791 N   0  0  0  0  0  0  0  0  0  0  0  0
   13.7866    0.4139   11.2166 C   0  0  0  0  0  0  0  0  0  0  0  0
   14.6862    1.0855   12.2185 C   0  0  0  0  0  0  0  0  0  0  0  0
   14.1930    2.1315   13.0223 C   0  0  0  0  0  0  0  0  0  0  0  0
   15.0144    2.7425   13.9680 C   0  0  0  0  0  0  0  0  0  0  0  0
   16.3117    2.2716   14.1589 C   0  0  0  0  0  0  0  0  0  0  0  0
   16.7995    1.2044   13.3878 C   0  0  0  0  0  0  0  0  0  0  0  0
   18.4425    0.5908   13.7721 S   0  0  0  0  0  0  0  0  0  0  0  0
   19.2910    1.6345   13.1999 O   0  0  0  0  0  0  0  0  0  0  0  0
   18.4248    0.5520   15.2349 O   0  0  0  0  0  0  0  0  0  0  0  0
   18.5412   -0.7161   13.1361 O   0  5  0  0  0  0  0  0  0  0  0  0
   16.0055    0.6287   12.4054 C   0  0  0  0  0  0  0  0  0  0  0  0
   16.4601   -0.3569   11.6177 F   0  0  0  0  0  0  0  0  0  0  0  0
   13.4420    1.1230   10.1130 C   0  0  0  0  0  0  0  0  0  0  0  0
   12.6606    0.7400    9.0299 N   0  0  0  0  0  0  0  0  0  0  0  0
   12.5980    1.7873    8.2423 C   0  0  0  0  0  0  0  0  0  0  0  0
   11.9427    1.9206    6.8955 C   0  0  0  0  0  0  0  0  0  0  0  0
   11.9747    3.2018    6.1373 C   0  0  0  0  0  0  0  0  0  0  0  0
   13.1964    3.6771    5.6219 C   0  0  0  0  0  0  0  0  0  0  0  0
   13.2484    4.8720    4.9030 C   0  0  0  0  0  0  0  0  0  0  0  0
   12.0726    5.5716    4.6456 C   0  0  0  0  0  0  0  0  0  0  0  0
   10.8448    5.0875    5.1232 C   0  0  0  0  0  0  0  0  0  0  0  0
    9.3668    5.9796    4.6284 S   0  0  0  0  0  0  0  0  0  0  0  0
    9.4949    7.2170    5.3938 O   0  0  0  0  0  0  0  0  0  0  0  0
    9.5713    6.1219    3.1864 O   0  0  0  0  0  0  0  0  0  0  0  0
    8.2481    5.1224    4.9952 O   0  5  0  0  0  0  0  0  0  0  0  0
   10.7949    3.9283    5.8878 C   0  0  0  0  0  0  0  0  0  0  0  0
    9.6437    3.4589    6.3888 F   0  0  0  0  0  0  0  0  0  0  0  0
   11.3828    0.8282    6.3426 C   0  0  0  0  0  0  0  0  0  0  0  0
   10.7522    0.7703    5.0285 C   0  0  0  0  0  0  0  0  0  0  0  0
   10.2934   -0.4739    4.8196 C   0  0  0  0  0  0  0  0  0  0  0  0
   10.6267   -1.3085    5.9768 C   0  0  0  0  0  0  0  0  0  0  0  0
   11.2639   -0.4501    6.8329 N   0  0  0  0  0  0  0  0  0  0  0  0
   13.3020    2.9692    8.7558 C   0  0  0  0  0  0  0  0  0  0  0  0
   13.8469    2.4930    9.8669 C   0  0  0  0  0  0  0  0  0  0  0  0
   10.3848   -5.0190    8.7723 C   0  0  0  0  0  0  0  0  0  0  0  0
   10.1858   -4.7518    7.4930 C   0  0  0  0  0  0  0  0  0  0  0  0
    8.4008   -3.9321    5.3101 C   0  0  0  0  0  0  0  0  0  0  0  0
    7.8282   -4.7894    4.3936 C   0  0  0  0  0  0  0  0  0  0  0  0
    0.7145   -2.7380   -4.9281 H   0  0  0  0  0  0  0  0  0  0  0  0
    0.6879   -4.3718   -4.3092 H   0  0  0  0  0  0  0  0  0  0  0  0
    2.2094   -3.5338   -4.4980 H   0  0  0  0  0  0  0  0  0  0  0  0
    0.0157   -2.7672   -2.6041 H   0  0  0  0  0  0  0  0  0  0  0  0
    1.5917   -1.9582   -2.8081 H   0  0  0  0  0  0  0  0  0  0  0  0
    1.4557   -4.8281   -1.8185 H   0  0  0  0  0  0  0  0  0  0  0  0
    3.5066   -2.6716   -1.9164 H   0  0  0  0  0  0  0  0  0  0  0  0
    3.4495   -4.0960   -2.9269 H   0  0  0  0  0  0  0  0  0  0  0  0
    3.6997   -4.2558   -1.2050 H   0  0  0  0  0  0  0  0  0  0  0  0
    0.0267   -3.4727   -0.5362 H   0  0  0  0  0  0  0  0  0  0  0  0
    2.2984   -1.8191    0.1550 H   0  0  0  0  0  0  0  0  0  0  0  0
   -1.3509   -0.1440    0.7742 H   0  0  0  0  0  0  0  0  0  0  0  0
   -1.1893   -1.9492    0.9158 H   0  0  0  0  0  0  0  0  0  0  0  0
   -1.1318   -1.0056   -1.7690 H   0  0  0  0  0  0  0  0  0  0  0  0
   -2.6578   -0.6817   -0.8685 H   0  0  0  0  0  0  0  0  0  0  0  0
   -2.2582   -2.5061   -3.3381 H   0  0  0  0  0  0  0  0  0  0  0  0
   -2.3897   -4.8932   -3.7762 H   0  0  0  0  0  0  0  0  0  0  0  0
   -2.7492   -3.2209    0.7658 H   0  0  0  0  0  0  0  0  0  0  0  0
    2.4651   -5.2028    2.2051 H   0  0  0  0  0  0  0  0  0  0  0  0
    3.5473   -3.2974    0.3061 H   0  0  0  0  0  0  0  0  0  0  0  0
    4.2905   -4.9000    0.5959 H   0  0  0  0  0  0  0  0  0  0  0  0
    3.9344   -2.9634    2.7765 H   0  0  0  0  0  0  0  0  0  0  0  0
    5.3265   -2.9127    1.6910 H   0  0  0  0  0  0  0  0  0  0  0  0
    4.4907   -5.2419    3.3534 H   0  0  0  0  0  0  0  0  0  0  0  0
    5.8435   -4.1415    3.6676 H   0  0  0  0  0  0  0  0  0  0  0  0
    5.6714   -6.0762    1.4998 H   0  0  0  0  0  0  0  0  0  0  0  0
    9.8712   -4.2388    1.7933 H   0  0  0  0  0  0  0  0  0  0  0  0
   11.1099   -3.0701    3.5323 H   0  0  0  0  0  0  0  0  0  0  0  0
   12.7080   -6.4296   10.0999 H   0  0  0  0  0  0  0  0  0  0  0  0
   12.3728   -8.5585   11.2109 H   0  0  0  0  0  0  0  0  0  0  0  0
   11.0527   -8.6540   13.2437 H   0  0  0  0  0  0  0  0  0  0  0  0
   13.0973   -3.7411   13.1337 H   0  0  0  0  0  0  0  0  0  0  0  0
   14.1636   -1.3835   13.4604 H   0  0  0  0  0  0  0  0  0  0  0  0
   12.2233   -1.4314    9.8070 H   0  0  0  0  0  0  0  0  0  0  0  0
   13.2170    2.4476   12.9103 H   0  0  0  0  0  0  0  0  0  0  0  0
   14.6640    3.5386   14.5233 H   0  0  0  0  0  0  0  0  0  0  0  0
   16.9172    2.7094   14.8707 H   0  0  0  0  0  0  0  0  0  0  0  0
   14.0615    3.1364    5.7775 H   0  0  0  0  0  0  0  0  0  0  0  0
   14.1531    5.2349    4.5642 H   0  0  0  0  0  0  0  0  0  0  0  0
   12.1039    6.4484    4.1022 H   0  0  0  0  0  0  0  0  0  0  0  0
   10.6718    1.5581    4.3667 H   0  0  0  0  0  0  0  0  0  0  0  0
    9.7869   -0.7917    3.9785 H   0  0  0  0  0  0  0  0  0  0  0  0
   11.6043   -0.7228    7.7155 H   0  0  0  0  0  0  0  0  0  0  0  0
   13.3579    3.9195    8.3572 H   0  0  0  0  0  0  0  0  0  0  0  0
   14.4799    3.0304   10.4797 H   0  0  0  0  0  0  0  0  0  0  0  0
   10.0768   -5.8820    9.2471 H   0  0  0  0  0  0  0  0  0  0  0  0
    9.8243   -5.3695    6.7495 H   0  0  0  0  0  0  0  0  0  0  0  0
    7.9270   -3.7407    6.2067 H   0  0  0  0  0  0  0  0  0  0  0  0
    7.0539   -5.4092    4.6787 H   0  0  0  0  0  0  0  0  0  0  0  0
  1  2  1  0  0  0  0
  1 91  1  0  0  0  0
  1 92  1  0  0  0  0
  1 93  1  0  0  0  0
  2  3  1  0  0  0  0
  2 94  1  0  0  0  0
  2 95  1  0  0  0  0
  3  4  1  0  0  0  0
  3 96  1  6  0  0  0
  4 97  1  0  0  0  0
  4 98  1  0  0  0  0
  4 99  1  0  0  0  0
  5 19  1  0  0  0  0
  5  6  1  0  0  0  0
  5  3  1  0  0  0  0
  5100  1  6  0  0  0
  6  7  1  0  0  0  0
  6101  1  0  0  0  0
  7  8  2  0  0  0  0
  7  9  1  0  0  0  0
  9 10  1  0  0  0  0
  9102  1  0  0  0  0
  9103  1  0  0  0  0
 10 11  1  0  0  0  0
 10104  1  0  0  0  0
 10105  1  0  0  0  0
 11 12  1  0  0  0  0
 11 18  2  0  0  0  0
 12 13  2  0  0  0  0
 12106  1  0  0  0  0
 13 14  1  0  0  0  0
 13107  1  0  0  0  0
 14 15  1  0  0  0  0
 14 16  2  0  0  0  0
 16 17  1  0  0  0  0
 16 18  1  0  0  0  0
 18108  1  0  0  0  0
 19 20  2  0  0  0  0
 19 21  1  0  0  0  0
 21 22  1  0  0  0  0
 21109  1  0  0  0  0
 22 23  1  0  0  0  0
 22110  1  0  0  0  0
 22111  1  0  0  0  0
 23 24  1  0  0  0  0
 23112  1  0  0  0  0
 23113  1  0  0  0  0
 24 25  1  0  0  0  0
 24114  1  0  0  0  0
 24115  1  0  0  0  0
 25 26  1  0  0  0  0
 25116  1  0  0  0  0
 26 27  2  0  0  0  0
 26 28  1  0  0  0  0
 28 29  1  0  0  0  0
 28 90  2  0  0  0  0
 29 30  2  0  0  0  0
 29117  1  0  0  0  0
 30 31  1  0  0  0  0
 30118  1  0  0  0  0
 31 32  1  0  0  0  0
 31 89  2  0  0  0  0
 32 33  1  0  0  0  0
 32 83  2  0  0  0  0
 33 34  2  0  0  0  0
 33 88  1  0  0  0  0
 34 35  1  0  0  0  0
 35 36  2  0  0  0  0
 35 87  1  0  0  0  0
 36 37  1  0  0  0  0
 36 48  1  0  0  0  0
 37 38  1  0  0  0  0
 37 46  2  0  0  0  0
 38 39  2  0  0  0  0
 38119  1  0  0  0  0
 39 40  1  0  0  0  0
 39120  1  0  0  0  0
 40 41  2  0  0  0  0
 40121  1  0  0  0  0
 41 42  1  0  0  0  0
 41 46  1  0  0  0  0
 42 43  2  0  0  0  0
 42 44  2  0  0  0  0
 42 45  1  0  0  0  0
 46 47  1  0  0  0  0
 48 49  2  0  0  0  0
 48 52  1  0  0  0  0
 49 50  1  0  0  0  0
 49122  1  0  0  0  0
 50 51  2  0  0  0  0
 50123  1  0  0  0  0
 51 52  1  0  0  0  0
 51 53  1  0  0  0  0
 52124  1  0  0  0  0
 53 54  1  0  0  0  0
 53 65  2  0  0  0  0
 54 55  1  0  0  0  0
 54 63  2  0  0  0  0
 55 56  2  0  0  0  0
 55125  1  0  0  0  0
 56 57  1  0  0  0  0
 56126  1  0  0  0  0
 57 58  2  0  0  0  0
 57127  1  0  0  0  0
 58 59  1  0  0  0  0
 58 63  1  0  0  0  0
 59 60  2  0  0  0  0
 59 61  2  0  0  0  0
 59 62  1  0  0  0  0
 63 64  1  0  0  0  0
 65 66  1  0  0  0  0
 65 86  1  0  0  0  0
 66 67  2  0  0  0  0
 67 68  1  0  0  0  0
 67 85  1  0  0  0  0
 68 69  1  0  0  0  0
 68 80  2  0  0  0  0
 69 70  1  0  0  0  0
 69 78  2  0  0  0  0
 70 71  2  0  0  0  0
 70128  1  0  0  0  0
 71 72  1  0  0  0  0
 71129  1  0  0  0  0
 72 73  2  0  0  0  0
 72130  1  0  0  0  0
 73 74  1  0  0  0  0
 73 78  1  0  0  0  0
 74 75  2  0  0  0  0
 74 76  2  0  0  0  0
 74 77  1  0  0  0  0
 78 79  1  0  0  0  0
 80 81  1  0  0  0  0
 80 84  1  0  0  0  0
 81 82  2  0  0  0  0
 81131  1  0  0  0  0
 82 83  1  0  0  0  0
 82132  1  0  0  0  0
 83 84  1  0  0  0  0
 84133  1  0  0  0  0
 85 86  2  0  0  0  0
 85134  1  0  0  0  0
 86135  1  0  0  0  0
 87 88  2  0  0  0  0
 87136  1  0  0  0  0
 88137  1  0  0  0  0
 89 90  1  0  0  0  0
 89138  1  0  0  0  0
 90139  1  0  0  0  0
M  CHG  3  45  -1  62  -1  77  -1
M  END
$$$$
