6_2_9424
 OpenBabel04152301363D

146158  0  0  1  0  0  0  0  0999 V2000
    2.2261    0.2503    0.6791 C   0  0  0  0  0  0  0  0  0  0  0  0
    1.1869    1.2231    1.2163 C   0  0  0  0  0  0  0  0  0  0  0  0
    0.8746    2.4408    0.3266 C   0  0  1  0  0  0  0  0  0  0  0  0
   -0.1386    2.2495   -1.1912 S   0  0  0  0  0  0  0  0  0  0  0  0
    0.6544    1.1452   -2.2501 C   0  0  0  0  0  0  0  0  0  0  0  0
    1.4258    1.5541   -3.2352 N   0  0  0  0  0  0  0  0  0  0  0  0
    1.7202    0.4765   -4.0305 N   0  0  0  0  0  0  0  0  0  0  0  0
    1.1260   -0.5780   -3.5180 C   0  0  0  0  0  0  0  0  0  0  0  0
    1.1274   -1.9284   -3.9446 C   0  0  0  0  0  0  0  0  0  0  0  0
    0.5525   -2.8812   -3.1968 C   0  0  0  0  0  0  0  0  0  0  0  0
   -0.0981   -2.5370   -1.9295 C   0  0  0  0  0  0  0  0  0  0  0  0
   -0.5815   -3.5425   -1.0797 C   0  0  0  0  0  0  0  0  0  0  0  0
   -1.1661   -3.2150    0.1439 C   0  0  0  0  0  0  0  0  0  0  0  0
   -1.3169   -1.8831    0.4956 C   0  0  0  0  0  0  0  0  0  0  0  0
   -0.8756   -0.8825   -0.3694 C   0  0  0  0  0  0  0  0  0  0  0  0
   -0.2197   -1.1905   -1.5512 C   0  0  0  0  0  0  0  0  0  0  0  0
    0.4306   -0.2205   -2.3673 N   0  0  0  0  0  0  0  0  0  0  0  0
    0.2398    3.5134    1.2501 C   0  0  0  0  0  0  0  0  0  0  0  0
    0.9426    4.4356    1.6817 O   0  0  0  0  0  0  0  0  0  0  0  0
   -1.0458    3.4549    1.7454 N   0  0  0  0  0  0  0  0  0  0  0  0
   -2.1590    2.8560    1.1412 C   0  0  0  0  0  0  0  0  0  0  0  0
   -2.5276    1.5512    1.4516 C   0  0  0  0  0  0  0  0  0  0  0  0
   -3.5498    0.9400    0.7249 C   0  0  0  0  0  0  0  0  0  0  0  0
   -4.2209    1.6525   -0.2704 C   0  0  0  0  0  0  0  0  0  0  0  0
   -3.9281    3.0055   -0.5176 C   0  0  0  0  0  0  0  0  0  0  0  0
   -4.6899    3.6643   -1.6164 C   0  0  0  0  0  0  0  0  0  0  0  0
   -5.2763    2.9513   -2.4351 O   0  0  0  0  0  0  0  0  0  0  0  0
   -4.8119    5.0169   -1.7835 N   0  0  0  0  0  0  0  0  0  0  0  0
   -4.4378    6.1717   -0.9850 C   0  0  0  0  0  0  0  0  0  0  0  0
   -3.4840    7.0944   -1.7468 C   0  0  0  0  0  0  0  0  0  0  0  0
   -4.1869    8.0207   -2.7454 C   0  0  0  0  0  0  0  0  0  0  0  0
   -5.3196    8.7374   -2.1894 N   0  0  0  0  0  0  0  0  0  0  0  0
   -5.5030    9.8650   -1.4399 C   0  0  0  0  0  0  0  0  0  0  0  0
   -6.6818   10.1459   -1.2020 O   0  0  0  0  0  0  0  0  0  0  0  0
   -4.4318   10.7198   -0.8591 C   0  0  0  0  0  0  0  0  0  0  0  0
   -3.0621   10.4968   -0.9686 C   0  0  0  0  0  0  0  0  0  0  0  0
   -2.1659   11.2960   -0.2591 C   0  0  0  0  0  0  0  0  0  0  0  0
   -2.6203   12.3610    0.5363 C   0  0  0  0  0  0  0  0  0  0  0  0
   -1.6162   13.2732    1.0954 C   0  0  0  0  0  0  0  0  0  0  0  0
   -0.7505   13.8580    0.0351 C   0  0  0  0  0  0  0  0  0  0  0  0
    0.4819   13.5597   -0.2185 N   0  0  0  0  0  0  0  0  0  0  0  0
    0.8611   14.4405   -1.2278 C   0  0  0  0  0  0  0  0  0  0  0  0
    2.1225   14.9489   -1.2493 C   0  0  0  0  0  0  0  0  0  0  0  0
    2.4368   16.3935   -1.5759 C   0  0  0  0  0  0  0  0  0  0  0  0
    3.7867   16.7490   -1.7824 C   0  0  0  0  0  0  0  0  0  0  0  0
    4.1940   18.0894   -1.8163 C   0  0  0  0  0  0  0  0  0  0  0  0
    3.2527   19.1059   -1.7007 C   0  0  0  0  0  0  0  0  0  0  0  0
    1.9113   18.7796   -1.5043 C   0  0  0  0  0  0  0  0  0  0  0  0
    0.7187   20.1184   -1.3900 S   0  0  0  0  0  0  0  0  0  0  0  0
    1.0724   20.7102   -0.0977 O   0  0  0  0  0  0  0  0  0  0  0  0
    1.0747   20.9287   -2.5583 O   0  0  0  0  0  0  0  0  0  0  0  0
   -0.5837   19.4877   -1.4747 O   0  5  0  0  0  0  0  0  0  0  0  0
    1.5188   17.4524   -1.3840 C   0  0  0  0  0  0  0  0  0  0  0  0
    0.2905   17.1893   -0.9280 F   0  0  0  0  0  0  0  0  0  0  0  0
    3.0040   14.2079   -0.3943 C   0  0  0  0  0  0  0  0  0  0  0  0
    3.6721   13.0054   -0.4106 C   0  0  0  0  0  0  0  0  0  0  0  0
    3.9465   12.6828    0.9515 C   0  0  0  0  0  0  0  0  0  0  0  0
    3.4774   13.7157    1.7575 C   0  0  0  0  0  0  0  0  0  0  0  0
    2.9556   14.6380    0.9007 N   0  0  0  0  0  0  0  0  0  0  0  0
    3.2447   13.8406    3.1755 C   0  0  0  0  0  0  0  0  0  0  0  0
    3.4016   12.6168    4.0087 C   0  0  0  0  0  0  0  0  0  0  0  0
    2.3367   11.7709    4.3624 C   0  0  0  0  0  0  0  0  0  0  0  0
    2.6032   10.5223    4.9340 C   0  0  0  0  0  0  0  0  0  0  0  0
    3.9263   10.1118    5.1210 C   0  0  0  0  0  0  0  0  0  0  0  0
    4.9854   10.9678    4.7806 C   0  0  0  0  0  0  0  0  0  0  0  0
    6.6602   10.3447    4.9193 S   0  0  0  0  0  0  0  0  0  0  0  0
    6.7946   10.1474    6.3613 O   0  0  0  0  0  0  0  0  0  0  0  0
    6.5931    9.1124    4.1338 O   0  0  0  0  0  0  0  0  0  0  0  0
    7.5279   11.3717    4.3552 O   0  5  0  0  0  0  0  0  0  0  0  0
    4.7250   12.2223    4.2610 C   0  0  0  0  0  0  0  0  0  0  0  0
    5.7081   13.0698    3.9204 F   0  0  0  0  0  0  0  0  0  0  0  0
    2.7786   14.9778    3.7541 C   0  0  0  0  0  0  0  0  0  0  0  0
    1.8993   14.9204    4.8140 N   0  0  0  0  0  0  0  0  0  0  0  0
    1.0813   15.9086    4.5781 C   0  0  0  0  0  0  0  0  0  0  0  0
   -0.3408   15.9104    4.9789 C   0  0  0  0  0  0  0  0  0  0  0  0
   -0.8552   16.9808    5.8819 C   0  0  0  0  0  0  0  0  0  0  0  0
    0.0697   17.7271    6.6535 C   0  0  0  0  0  0  0  0  0  0  0  0
   -0.2578   18.9837    7.1778 C   0  0  0  0  0  0  0  0  0  0  0  0
   -1.5297   19.5029    6.9736 C   0  0  0  0  0  0  0  0  0  0  0  0
   -2.4849   18.7464    6.2822 C   0  0  0  0  0  0  0  0  0  0  0  0
   -4.1126   19.4813    6.0689 S   0  0  0  0  0  0  0  0  0  0  0  0
   -4.3898   20.0062    7.4074 O   0  0  0  0  0  0  0  0  0  0  0  0
   -3.8577   20.4999    5.0552 O   0  0  0  0  0  0  0  0  0  0  0  0
   -4.9871   18.3865    5.6677 O   0  5  0  0  0  0  0  0  0  0  0  0
   -2.1593   17.4990    5.7471 C   0  0  0  0  0  0  0  0  0  0  0  0
   -3.0534   16.8197    5.0188 F   0  0  0  0  0  0  0  0  0  0  0  0
   -0.9639   14.9526    4.2429 C   0  0  0  0  0  0  0  0  0  0  0  0
   -2.2034   14.2425    4.5032 C   0  0  0  0  0  0  0  0  0  0  0  0
   -2.4733   13.4202    3.4625 C   0  0  0  0  0  0  0  0  0  0  0  0
   -1.5071   13.6607    2.3871 C   0  0  0  0  0  0  0  0  0  0  0  0
   -0.5650   14.4486    3.0014 N   0  0  0  0  0  0  0  0  0  0  0  0
    1.5643   16.9342    3.6586 C   0  0  0  0  0  0  0  0  0  0  0  0
    2.6506   16.3157    3.1959 C   0  0  0  0  0  0  0  0  0  0  0  0
   -0.3509   14.9588   -1.8028 C   0  0  0  0  0  0  0  0  0  0  0  0
   -1.3760   14.7238   -0.9801 C   0  0  0  0  0  0  0  0  0  0  0  0
   -3.9767   12.6473    0.5843 C   0  0  0  0  0  0  0  0  0  0  0  0
   -4.8700   11.8251   -0.0990 C   0  0  0  0  0  0  0  0  0  0  0  0
   -2.8833    3.5954    0.1965 C   0  0  0  0  0  0  0  0  0  0  0  0
    2.3598   -0.5499    1.3767 H   0  0  0  0  0  0  0  0  0  0  0  0
    3.1556    0.7619    0.5407 H   0  0  0  0  0  0  0  0  0  0  0  0
    1.8937   -0.1452   -0.2579 H   0  0  0  0  0  0  0  0  0  0  0  0
    1.5375    1.5883    2.1589 H   0  0  0  0  0  0  0  0  0  0  0  0
    0.2746    0.6668    1.2725 H   0  0  0  0  0  0  0  0  0  0  0  0
    1.8204    2.6945   -0.1046 H   0  0  0  0  0  0  0  0  0  0  0  0
    1.5751   -2.1814   -4.8394 H   0  0  0  0  0  0  0  0  0  0  0  0
    0.5682   -3.8627   -3.5154 H   0  0  0  0  0  0  0  0  0  0  0  0
   -0.5042   -4.5322   -1.3617 H   0  0  0  0  0  0  0  0  0  0  0  0
   -1.4843   -3.9600    0.7832 H   0  0  0  0  0  0  0  0  0  0  0  0
   -1.7549   -1.6324    1.3958 H   0  0  0  0  0  0  0  0  0  0  0  0
   -1.0405    0.1065   -0.1251 H   0  0  0  0  0  0  0  0  0  0  0  0
   -1.1982    3.8808    2.6198 H   0  0  0  0  0  0  0  0  0  0  0  0
   -2.0503    1.0409    2.2110 H   0  0  0  0  0  0  0  0  0  0  0  0
   -3.8098   -0.0388    0.9232 H   0  0  0  0  0  0  0  0  0  0  0  0
   -4.9438    1.1785   -0.8341 H   0  0  0  0  0  0  0  0  0  0  0  0
   -5.2493    5.2613   -2.6310 H   0  0  0  0  0  0  0  0  0  0  0  0
   -3.9559    5.8350   -0.0910 H   0  0  0  0  0  0  0  0  0  0  0  0
   -5.3256    6.7226   -0.7545 H   0  0  0  0  0  0  0  0  0  0  0  0
   -2.7846    6.4881   -2.2835 H   0  0  0  0  0  0  0  0  0  0  0  0
   -3.0095    7.7209   -1.0207 H   0  0  0  0  0  0  0  0  0  0  0  0
   -4.5335    7.4290   -3.5668 H   0  0  0  0  0  0  0  0  0  0  0  0
   -3.4698    8.7574   -3.0419 H   0  0  0  0  0  0  0  0  0  0  0  0
   -6.1738    8.2994   -2.4080 H   0  0  0  0  0  0  0  0  0  0  0  0
   -2.7096    9.7398   -1.5750 H   0  0  0  0  0  0  0  0  0  0  0  0
   -1.1541   11.1021   -0.3193 H   0  0  0  0  0  0  0  0  0  0  0  0
    4.4900   16.0049   -1.9114 H   0  0  0  0  0  0  0  0  0  0  0  0
    5.1933   18.3221   -1.9271 H   0  0  0  0  0  0  0  0  0  0  0  0
    3.5444   20.0941   -1.7598 H   0  0  0  0  0  0  0  0  0  0  0  0
    3.9243   12.4483   -1.2419 H   0  0  0  0  0  0  0  0  0  0  0  0
    4.4152   11.8256    1.2841 H   0  0  0  0  0  0  0  0  0  0  0  0
    2.5888   15.5076    1.1810 H   0  0  0  0  0  0  0  0  0  0  0  0
    1.3621   12.0696    4.2011 H   0  0  0  0  0  0  0  0  0  0  0  0
    1.8253    9.9060    5.2168 H   0  0  0  0  0  0  0  0  0  0  0  0
    4.1250    9.1769    5.5103 H   0  0  0  0  0  0  0  0  0  0  0  0
    1.0073   17.3352    6.8334 H   0  0  0  0  0  0  0  0  0  0  0  0
    0.4421   19.5210    7.7130 H   0  0  0  0  0  0  0  0  0  0  0  0
   -1.7700   20.4413    7.3294 H   0  0  0  0  0  0  0  0  0  0  0  0
   -2.7864   14.3481    5.3482 H   0  0  0  0  0  0  0  0  0  0  0  0
   -3.2406   12.7307    3.4311 H   0  0  0  0  0  0  0  0  0  0  0  0
    0.3142   14.6416    2.6026 H   0  0  0  0  0  0  0  0  0  0  0  0
    1.1783   17.8644    3.4331 H   0  0  0  0  0  0  0  0  0  0  0  0
    3.3164   16.7327    2.5267 H   0  0  0  0  0  0  0  0  0  0  0  0
   -0.4182   15.4396   -2.7135 H   0  0  0  0  0  0  0  0  0  0  0  0
   -2.3499   15.0600   -1.0396 H   0  0  0  0  0  0  0  0  0  0  0  0
   -4.3201   13.4598    1.1199 H   0  0  0  0  0  0  0  0  0  0  0  0
   -5.8802   12.0300   -0.0479 H   0  0  0  0  0  0  0  0  0  0  0  0
   -2.6424    4.5845    0.0271 H   0  0  0  0  0  0  0  0  0  0  0  0
  1  2  1  0  0  0  0
  1 99  1  0  0  0  0
  1100  1  0  0  0  0
  1101  1  0  0  0  0
  2  3  1  0  0  0  0
  2102  1  0  0  0  0
  2103  1  0  0  0  0
  3  4  1  0  0  0  0
  3 18  1  0  0  0  0
  3104  1  6  0  0  0
  4  5  1  0  0  0  0
  5  6  2  0  0  0  0
  5 17  1  0  0  0  0
  6  7  1  0  0  0  0
  7  8  2  0  0  0  0
  8  9  1  0  0  0  0
  8 17  1  0  0  0  0
  9 10  2  0  0  0  0
  9105  1  0  0  0  0
 10 11  1  0  0  0  0
 10106  1  0  0  0  0
 11 12  1  0  0  0  0
 11 16  2  0  0  0  0
 12 13  2  0  0  0  0
 12107  1  0  0  0  0
 13 14  1  0  0  0  0
 13108  1  0  0  0  0
 14 15  2  0  0  0  0
 14109  1  0  0  0  0
 15 16  1  0  0  0  0
 15110  1  0  0  0  0
 16 17  1  0  0  0  0
 18 19  2  0  0  0  0
 18 20  1  0  0  0  0
 20 21  1  0  0  0  0
 20111  1  0  0  0  0
 21 22  1  0  0  0  0
 21 98  2  0  0  0  0
 22 23  2  0  0  0  0
 22112  1  0  0  0  0
 23 24  1  0  0  0  0
 23113  1  0  0  0  0
 24 25  2  0  0  0  0
 24114  1  0  0  0  0
 25 26  1  0  0  0  0
 25 98  1  0  0  0  0
 26 27  2  0  0  0  0
 26 28  1  0  0  0  0
 28 29  1  0  0  0  0
 28115  1  0  0  0  0
 29 30  1  0  0  0  0
 29116  1  0  0  0  0
 29117  1  0  0  0  0
 30 31  1  0  0  0  0
 30118  1  0  0  0  0
 30119  1  0  0  0  0
 31 32  1  0  0  0  0
 31120  1  0  0  0  0
 31121  1  0  0  0  0
 32 33  1  0  0  0  0
 32122  1  0  0  0  0
 33 34  2  0  0  0  0
 33 35  1  0  0  0  0
 35 36  1  0  0  0  0
 35 97  2  0  0  0  0
 36 37  2  0  0  0  0
 36123  1  0  0  0  0
 37 38  1  0  0  0  0
 37124  1  0  0  0  0
 38 39  1  0  0  0  0
 38 96  2  0  0  0  0
 39 40  1  0  0  0  0
 39 90  2  0  0  0  0
 40 41  2  0  0  0  0
 40 95  1  0  0  0  0
 41 42  1  0  0  0  0
 42 43  2  0  0  0  0
 42 94  1  0  0  0  0
 43 44  1  0  0  0  0
 43 55  1  0  0  0  0
 44 45  1  0  0  0  0
 44 53  2  0  0  0  0
 45 46  2  0  0  0  0
 45125  1  0  0  0  0
 46 47  1  0  0  0  0
 46126  1  0  0  0  0
 47 48  2  0  0  0  0
 47127  1  0  0  0  0
 48 49  1  0  0  0  0
 48 53  1  0  0  0  0
 49 50  2  0  0  0  0
 49 51  2  0  0  0  0
 49 52  1  0  0  0  0
 53 54  1  0  0  0  0
 55 56  2  0  0  0  0
 55 59  1  0  0  0  0
 56 57  1  0  0  0  0
 56128  1  0  0  0  0
 57 58  2  0  0  0  0
 57129  1  0  0  0  0
 58 59  1  0  0  0  0
 58 60  1  0  0  0  0
 59130  1  0  0  0  0
 60 61  1  0  0  0  0
 60 72  2  0  0  0  0
 61 62  1  0  0  0  0
 61 70  2  0  0  0  0
 62 63  2  0  0  0  0
 62131  1  0  0  0  0
 63 64  1  0  0  0  0
 63132  1  0  0  0  0
 64 65  2  0  0  0  0
 64133  1  0  0  0  0
 65 66  1  0  0  0  0
 65 70  1  0  0  0  0
 66 67  2  0  0  0  0
 66 68  2  0  0  0  0
 66 69  1  0  0  0  0
 70 71  1  0  0  0  0
 72 73  1  0  0  0  0
 72 93  1  0  0  0  0
 73 74  2  0  0  0  0
 74 75  1  0  0  0  0
 74 92  1  0  0  0  0
 75 76  1  0  0  0  0
 75 87  2  0  0  0  0
 76 77  1  0  0  0  0
 76 85  2  0  0  0  0
 77 78  2  0  0  0  0
 77134  1  0  0  0  0
 78 79  1  0  0  0  0
 78135  1  0  0  0  0
 79 80  2  0  0  0  0
 79136  1  0  0  0  0
 80 81  1  0  0  0  0
 80 85  1  0  0  0  0
 81 82  2  0  0  0  0
 81 83  2  0  0  0  0
 81 84  1  0  0  0  0
 85 86  1  0  0  0  0
 87 88  1  0  0  0  0
 87 91  1  0  0  0  0
 88 89  2  0  0  0  0
 88137  1  0  0  0  0
 89 90  1  0  0  0  0
 89138  1  0  0  0  0
 90 91  1  0  0  0  0
 91139  1  0  0  0  0
 92 93  2  0  0  0  0
 92140  1  0  0  0  0
 93141  1  0  0  0  0
 94 95  2  0  0  0  0
 94142  1  0  0  0  0
 95143  1  0  0  0  0
 96 97  1  0  0  0  0
 96144  1  0  0  0  0
 97145  1  0  0  0  0
 98146  1  0  0  0  0
M  CHG  3  52  -1  69  -1  84  -1
M  END
$$$$
