6_2_3654
 OpenBabel04152301373D

145155  0  0  1  0  0  0  0  0999 V2000
    0.6511    7.4462    5.4648 C   0  0  0  0  0  0  0  0  0  0  0  0
    0.6738    5.9600    5.2642 C   0  0  0  0  0  0  0  0  0  0  0  0
    0.8351    5.1007    6.3555 C   0  0  0  0  0  0  0  0  0  0  0  0
    0.8375    3.7145    6.1689 C   0  0  0  0  0  0  0  0  0  0  0  0
    0.6876    3.1649    4.8929 C   0  0  0  0  0  0  0  0  0  0  0  0
    0.6838    1.7965    4.8507 O   0  0  0  0  0  0  0  0  0  0  0  0
    0.6128    1.1785    3.5745 C   0  0  0  0  0  0  0  0  0  0  0  0
   -0.7582    1.2008    2.8851 C   0  0  0  0  0  0  0  0  0  0  0  0
   -0.8938    1.6614    1.7504 O   0  0  0  0  0  0  0  0  0  0  0  0
   -1.8333    0.6433    3.5385 N   0  0  0  0  0  0  0  0  0  0  0  0
   -1.7258    0.0097    4.7688 N   0  0  0  0  0  0  0  0  0  0  0  0
   -2.7640   -0.3073    5.6011 C   0  0  0  0  0  0  0  0  0  0  0  0
   -2.5117   -1.0423    6.5579 O   0  0  0  0  0  0  0  0  0  0  0  0
   -4.1681    0.2341    5.3171 C   0  0  1  0  0  0  0  0  0  0  0  0
   -5.2133   -0.3119    6.3064 C   0  0  0  0  0  0  0  0  0  0  0  0
   -4.9854    0.1431    7.7461 C   0  0  0  0  0  0  0  0  0  0  0  0
   -4.7627    1.6386    7.8919 C   0  0  0  0  0  0  0  0  0  0  0  0
   -3.9609    2.2886    6.7639 C   0  0  0  0  0  0  0  0  0  0  0  0
   -4.2040    1.7806    5.3423 C   0  0  2  0  0  0  0  0  0  0  0  0
   -5.3364    2.2570    4.4190 C   0  0  0  0  0  0  0  0  0  0  0  0
   -5.4215    1.7546    3.2890 O   0  0  0  0  0  0  0  0  0  0  0  0
   -6.2208    3.2378    4.6993 N   0  0  0  0  0  0  0  0  0  0  0  0
   -6.5458    3.9232    5.9287 C   0  0  0  0  0  0  0  0  0  0  0  0
   -5.6828    5.1591    6.2014 C   0  0  0  0  0  0  0  0  0  0  0  0
   -6.4994    6.4356    6.2181 C   0  0  0  0  0  0  0  0  0  0  0  0
   -7.4885    6.4036    7.3105 N   0  0  0  0  0  0  0  0  0  0  0  0
   -8.6759    7.0881    7.4873 C   0  0  0  0  0  0  0  0  0  0  0  0
   -9.0887    7.2571    8.6376 O   0  0  0  0  0  0  0  0  0  0  0  0
   -9.4416    7.5268    6.3133 C   0  0  0  0  0  0  0  0  0  0  0  0
  -10.5434    8.3841    6.3390 C   0  0  0  0  0  0  0  0  0  0  0  0
  -11.3392    8.4571    5.1947 C   0  0  0  0  0  0  0  0  0  0  0  0
  -10.8667    7.8436    4.0406 C   0  0  0  0  0  0  0  0  0  0  0  0
  -11.5753    7.5422    2.8220 C   0  0  0  0  0  0  0  0  0  0  0  0
  -11.6619    8.6030    1.8339 C   0  0  0  0  0  0  0  0  0  0  0  0
  -12.3166    8.4875    0.7433 N   0  0  0  0  0  0  0  0  0  0  0  0
  -11.9086    9.5191   -0.0649 C   0  0  0  0  0  0  0  0  0  0  0  0
  -12.0828    9.3862   -1.4057 C   0  0  0  0  0  0  0  0  0  0  0  0
  -11.4768   10.3266   -2.4211 C   0  0  0  0  0  0  0  0  0  0  0  0
  -11.2401    9.8133   -3.7115 C   0  0  0  0  0  0  0  0  0  0  0  0
  -10.6037   10.5600   -4.7067 C   0  0  0  0  0  0  0  0  0  0  0  0
  -10.1537   11.8418   -4.4283 C   0  0  0  0  0  0  0  0  0  0  0  0
  -10.4049   12.4011   -3.1737 C   0  0  0  0  0  0  0  0  0  0  0  0
   -9.7010   14.0306   -2.8549 S   0  0  0  0  0  0  0  0  0  0  0  0
   -8.3377   13.8856   -3.3727 O   0  0  0  0  0  0  0  0  0  0  0  0
  -10.5580   14.9076   -3.6482 O   0  0  0  0  0  0  0  0  0  0  0  0
   -9.7630   14.2182   -1.4100 O   0  5  0  0  0  0  0  0  0  0  0  0
  -11.1112   11.6802   -2.2061 C   0  0  0  0  0  0  0  0  0  0  0  0
  -11.5162   12.3125   -1.0982 F   0  0  0  0  0  0  0  0  0  0  0  0
  -12.6530    8.0564   -1.7147 C   0  0  0  0  0  0  0  0  0  0  0  0
  -12.1286    6.8444   -2.1398 C   0  0  0  0  0  0  0  0  0  0  0  0
  -13.0787    5.8110   -1.8372 C   0  0  0  0  0  0  0  0  0  0  0  0
  -14.1917    6.3938   -1.2574 C   0  0  0  0  0  0  0  0  0  0  0  0
  -13.8965    7.7463   -1.1869 N   0  0  0  0  0  0  0  0  0  0  0  0
  -15.4773    5.9541   -0.7147 C   0  0  0  0  0  0  0  0  0  0  0  0
  -16.7667    6.4545   -1.3631 C   0  0  0  0  0  0  0  0  0  0  0  0
  -17.9679    5.7341   -1.2291 C   0  0  0  0  0  0  0  0  0  0  0  0
  -19.1744    6.1923   -1.7700 C   0  0  0  0  0  0  0  0  0  0  0  0
  -19.1973    7.3476   -2.5376 C   0  0  0  0  0  0  0  0  0  0  0  0
  -18.0054    8.0201   -2.7964 C   0  0  0  0  0  0  0  0  0  0  0  0
  -18.0709    9.4134   -3.9344 S   0  0  0  0  0  0  0  0  0  0  0  0
  -18.5388    8.7643   -5.1598 O   0  0  0  0  0  0  0  0  0  0  0  0
  -19.0551   10.2792   -3.2867 O   0  0  0  0  0  0  0  0  0  0  0  0
  -16.7235    9.9585   -4.0061 O   0  5  0  0  0  0  0  0  0  0  0  0
  -16.8167    7.5844   -2.2259 C   0  0  0  0  0  0  0  0  0  0  0  0
  -15.7031    8.2397   -2.5535 F   0  0  0  0  0  0  0  0  0  0  0  0
  -15.4503    5.1662    0.4120 C   0  0  0  0  0  0  0  0  0  0  0  0
  -14.3059    4.6136    0.9286 N   0  0  0  0  0  0  0  0  0  0  0  0
  -14.5490    4.1128    2.1131 C   0  0  0  0  0  0  0  0  0  0  0  0
  -13.4856    3.6471    3.1074 C   0  0  0  0  0  0  0  0  0  0  0  0
  -13.6000    3.6698    4.6154 C   0  0  0  0  0  0  0  0  0  0  0  0
  -12.7143    2.8062    5.3127 C   0  0  0  0  0  0  0  0  0  0  0  0
  -12.1458    3.1976    6.5284 C   0  0  0  0  0  0  0  0  0  0  0  0
  -12.5122    4.4140    7.0958 C   0  0  0  0  0  0  0  0  0  0  0  0
  -13.5320    5.1791    6.5077 C   0  0  0  0  0  0  0  0  0  0  0  0
  -14.0187    6.7138    7.3071 S   0  0  0  0  0  0  0  0  0  0  0  0
  -15.1346    6.2689    8.1372 O   0  0  0  0  0  0  0  0  0  0  0  0
  -12.8196    7.0888    8.0546 O   0  0  0  0  0  0  0  0  0  0  0  0
  -14.3505    7.6178    6.2151 O   0  5  0  0  0  0  0  0  0  0  0  0
  -14.0908    4.8059    5.2857 C   0  0  0  0  0  0  0  0  0  0  0  0
  -15.0334    5.5508    4.6951 F   0  0  0  0  0  0  0  0  0  0  0  0
  -12.2247    4.0363    2.7296 C   0  0  0  0  0  0  0  0  0  0  0  0
  -11.7935    4.2548    1.3588 C   0  0  0  0  0  0  0  0  0  0  0  0
  -11.5398    5.5712    1.2129 C   0  0  0  0  0  0  0  0  0  0  0  0
  -11.6284    6.2205    2.5145 C   0  0  0  0  0  0  0  0  0  0  0  0
  -11.6792    5.1397    3.3840 N   0  0  0  0  0  0  0  0  0  0  0  0
  -15.9772    4.1016    2.4173 C   0  0  0  0  0  0  0  0  0  0  0  0
  -16.4791    4.7745    1.3684 C   0  0  0  0  0  0  0  0  0  0  0  0
  -11.1757   10.4223    0.7896 C   0  0  0  0  0  0  0  0  0  0  0  0
  -10.9787    9.8815    1.9937 C   0  0  0  0  0  0  0  0  0  0  0  0
   -9.5918    7.3283    3.9531 C   0  0  0  0  0  0  0  0  0  0  0  0
   -9.1172    6.8928    5.1296 C   0  0  0  0  0  0  0  0  0  0  0  0
    0.5470    4.0222    3.8021 C   0  0  0  0  0  0  0  0  0  0  0  0
    0.5365    5.4090    3.9874 C   0  0  0  0  0  0  0  0  0  0  0  0
    0.7701    7.6676    6.5049 H   0  0  0  0  0  0  0  0  0  0  0  0
   -0.2834    7.8382    5.1214 H   0  0  0  0  0  0  0  0  0  0  0  0
    1.4504    7.8931    4.9113 H   0  0  0  0  0  0  0  0  0  0  0  0
    0.9530    5.4913    7.3034 H   0  0  0  0  0  0  0  0  0  0  0  0
    0.9513    3.0904    6.9829 H   0  0  0  0  0  0  0  0  0  0  0  0
    0.9028    0.1552    3.6910 H   0  0  0  0  0  0  0  0  0  0  0  0
    1.2597    1.7511    2.9431 H   0  0  0  0  0  0  0  0  0  0  0  0
   -2.7198    0.6963    3.1136 H   0  0  0  0  0  0  0  0  0  0  0  0
   -0.8205   -0.2335    5.0696 H   0  0  0  0  0  0  0  0  0  0  0  0
   -4.4181   -0.1052    4.3336 H   0  0  0  0  0  0  0  0  0  0  0  0
   -5.1789   -1.3810    6.2796 H   0  0  0  0  0  0  0  0  0  0  0  0
   -6.1649    0.0713    6.0022 H   0  0  0  0  0  0  0  0  0  0  0  0
   -4.1240   -0.3644    8.1273 H   0  0  0  0  0  0  0  0  0  0  0  0
   -5.8759   -0.0925    8.2905 H   0  0  0  0  0  0  0  0  0  0  0  0
   -4.2400    1.8078    8.8101 H   0  0  0  0  0  0  0  0  0  0  0  0
   -5.7333    2.0882    7.8646 H   0  0  0  0  0  0  0  0  0  0  0  0
   -2.9237    2.1438    6.9831 H   0  0  0  0  0  0  0  0  0  0  0  0
   -4.2873    3.3075    6.7491 H   0  0  0  0  0  0  0  0  0  0  0  0
   -3.3912    2.3043    4.8842 H   0  0  0  0  0  0  0  0  0  0  0  0
   -6.7410    3.5426    3.9210 H   0  0  0  0  0  0  0  0  0  0  0  0
   -6.4171    3.2376    6.7400 H   0  0  0  0  0  0  0  0  0  0  0  0
   -7.5550    4.2658    5.8340 H   0  0  0  0  0  0  0  0  0  0  0  0
   -4.9392    5.2358    5.4358 H   0  0  0  0  0  0  0  0  0  0  0  0
   -5.2371    5.0418    7.1671 H   0  0  0  0  0  0  0  0  0  0  0  0
   -7.0105    6.5385    5.2837 H   0  0  0  0  0  0  0  0  0  0  0  0
   -5.8409    7.2647    6.3727 H   0  0  0  0  0  0  0  0  0  0  0  0
   -7.2636    5.7857    8.0432 H   0  0  0  0  0  0  0  0  0  0  0  0
  -10.7622    8.9455    7.1768 H   0  0  0  0  0  0  0  0  0  0  0  0
  -12.2463    8.9492    5.2052 H   0  0  0  0  0  0  0  0  0  0  0  0
  -11.5473    8.8525   -3.9294 H   0  0  0  0  0  0  0  0  0  0  0  0
  -10.4688   10.1580   -5.6476 H   0  0  0  0  0  0  0  0  0  0  0  0
   -9.6372   12.3782   -5.1428 H   0  0  0  0  0  0  0  0  0  0  0  0
  -11.2126    6.7087   -2.5954 H   0  0  0  0  0  0  0  0  0  0  0  0
  -12.9526    4.8034   -2.0212 H   0  0  0  0  0  0  0  0  0  0  0  0
  -14.5064    8.4166   -0.8021 H   0  0  0  0  0  0  0  0  0  0  0  0
  -17.9588    4.8391   -0.7154 H   0  0  0  0  0  0  0  0  0  0  0  0
  -20.0478    5.6703   -1.5977 H   0  0  0  0  0  0  0  0  0  0  0  0
  -20.0893    7.7055   -2.9134 H   0  0  0  0  0  0  0  0  0  0  0  0
  -12.4879    1.8800    4.9179 H   0  0  0  0  0  0  0  0  0  0  0  0
  -11.4596    2.5889    7.0014 H   0  0  0  0  0  0  0  0  0  0  0  0
  -12.0359    4.7528    7.9463 H   0  0  0  0  0  0  0  0  0  0  0  0
  -11.6985    3.5321    0.6282 H   0  0  0  0  0  0  0  0  0  0  0  0
  -11.3184    6.0431    0.3222 H   0  0  0  0  0  0  0  0  0  0  0  0
  -11.3760    5.1507    4.3206 H   0  0  0  0  0  0  0  0  0  0  0  0
  -16.4700    3.6870    3.2237 H   0  0  0  0  0  0  0  0  0  0  0  0
  -17.4816    4.9903    1.2524 H   0  0  0  0  0  0  0  0  0  0  0  0
  -10.8483   11.3595    0.5077 H   0  0  0  0  0  0  0  0  0  0  0  0
  -10.4800   10.2631    2.8127 H   0  0  0  0  0  0  0  0  0  0  0  0
   -9.0565    7.2821    3.0720 H   0  0  0  0  0  0  0  0  0  0  0  0
   -8.4975    6.0679    5.1509 H   0  0  0  0  0  0  0  0  0  0  0  0
    0.4501    3.6312    2.8520 H   0  0  0  0  0  0  0  0  0  0  0  0
    0.4261    6.0319    3.1720 H   0  0  0  0  0  0  0  0  0  0  0  0
  1  2  1  0  0  0  0
  1 94  1  0  0  0  0
  1 95  1  0  0  0  0
  1 96  1  0  0  0  0
  2  3  1  0  0  0  0
  2 93  2  0  0  0  0
  3  4  2  0  0  0  0
  3 97  1  0  0  0  0
  4  5  1  0  0  0  0
  4 98  1  0  0  0  0
  5  6  1  0  0  0  0
  5 92  2  0  0  0  0
  6  7  1  0  0  0  0
  7  8  1  0  0  0  0
  7 99  1  0  0  0  0
  7100  1  0  0  0  0
  8  9  2  0  0  0  0
  8 10  1  0  0  0  0
 10 11  1  0  0  0  0
 10101  1  0  0  0  0
 11 12  1  0  0  0  0
 11102  1  0  0  0  0
 12 13  2  0  0  0  0
 14 15  1  0  0  0  0
 14 19  1  0  0  0  0
 14 12  1  0  0  0  0
 14103  1  6  0  0  0
 15 16  1  0  0  0  0
 15104  1  0  0  0  0
 15105  1  0  0  0  0
 16 17  1  0  0  0  0
 16106  1  0  0  0  0
 16107  1  0  0  0  0
 17 18  1  0  0  0  0
 17108  1  0  0  0  0
 17109  1  0  0  0  0
 18 19  1  0  0  0  0
 18110  1  0  0  0  0
 18111  1  0  0  0  0
 19 20  1  0  0  0  0
 19112  1  6  0  0  0
 20 21  2  0  0  0  0
 20 22  1  0  0  0  0
 22 23  1  0  0  0  0
 22113  1  0  0  0  0
 23 24  1  0  0  0  0
 23114  1  0  0  0  0
 23115  1  0  0  0  0
 24 25  1  0  0  0  0
 24116  1  0  0  0  0
 24117  1  0  0  0  0
 25 26  1  0  0  0  0
 25118  1  0  0  0  0
 25119  1  0  0  0  0
 26 27  1  0  0  0  0
 26120  1  0  0  0  0
 27 28  2  0  0  0  0
 27 29  1  0  0  0  0
 29 30  1  0  0  0  0
 29 91  2  0  0  0  0
 30 31  2  0  0  0  0
 30121  1  0  0  0  0
 31 32  1  0  0  0  0
 31122  1  0  0  0  0
 32 33  1  0  0  0  0
 32 90  2  0  0  0  0
 33 34  1  0  0  0  0
 33 84  2  0  0  0  0
 34 35  2  0  0  0  0
 34 89  1  0  0  0  0
 35 36  1  0  0  0  0
 36 37  2  0  0  0  0
 36 88  1  0  0  0  0
 37 38  1  0  0  0  0
 37 49  1  0  0  0  0
 38 39  1  0  0  0  0
 38 47  2  0  0  0  0
 39 40  2  0  0  0  0
 39123  1  0  0  0  0
 40 41  1  0  0  0  0
 40124  1  0  0  0  0
 41 42  2  0  0  0  0
 41125  1  0  0  0  0
 42 43  1  0  0  0  0
 42 47  1  0  0  0  0
 43 44  2  0  0  0  0
 43 45  2  0  0  0  0
 43 46  1  0  0  0  0
 47 48  1  0  0  0  0
 49 50  2  0  0  0  0
 49 53  1  0  0  0  0
 50 51  1  0  0  0  0
 50126  1  0  0  0  0
 51 52  2  0  0  0  0
 51127  1  0  0  0  0
 52 53  1  0  0  0  0
 52 54  1  0  0  0  0
 53128  1  0  0  0  0
 54 55  1  0  0  0  0
 54 66  2  0  0  0  0
 55 56  1  0  0  0  0
 55 64  2  0  0  0  0
 56 57  2  0  0  0  0
 56129  1  0  0  0  0
 57 58  1  0  0  0  0
 57130  1  0  0  0  0
 58 59  2  0  0  0  0
 58131  1  0  0  0  0
 59 60  1  0  0  0  0
 59 64  1  0  0  0  0
 60 61  2  0  0  0  0
 60 62  2  0  0  0  0
 60 63  1  0  0  0  0
 64 65  1  0  0  0  0
 66 67  1  0  0  0  0
 66 87  1  0  0  0  0
 67 68  2  0  0  0  0
 68 69  1  0  0  0  0
 68 86  1  0  0  0  0
 69 70  1  0  0  0  0
 69 81  2  0  0  0  0
 70 71  1  0  0  0  0
 70 79  2  0  0  0  0
 71 72  2  0  0  0  0
 71132  1  0  0  0  0
 72 73  1  0  0  0  0
 72133  1  0  0  0  0
 73 74  2  0  0  0  0
 73134  1  0  0  0  0
 74 75  1  0  0  0  0
 74 79  1  0  0  0  0
 75 76  2  0  0  0  0
 75 77  2  0  0  0  0
 75 78  1  0  0  0  0
 79 80  1  0  0  0  0
 81 82  1  0  0  0  0
 81 85  1  0  0  0  0
 82 83  2  0  0  0  0
 82135  1  0  0  0  0
 83 84  1  0  0  0  0
 83136  1  0  0  0  0
 84 85  1  0  0  0  0
 85137  1  0  0  0  0
 86 87  2  0  0  0  0
 86138  1  0  0  0  0
 87139  1  0  0  0  0
 88 89  2  0  0  0  0
 88140  1  0  0  0  0
 89141  1  0  0  0  0
 90 91  1  0  0  0  0
 90142  1  0  0  0  0
 91143  1  0  0  0  0
 92 93  1  0  0  0  0
 92144  1  0  0  0  0
 93145  1  0  0  0  0
M  CHG  3  46  -1  63  -1  78  -1
M  END
$$$$
