6_2_3712
 OpenBabel04152301373D

126136  0  0  0  0  0  0  0  0999 V2000
    1.1020   -0.0958   -0.0985 O   0  0  0  0  0  0  0  0  0  0  0  0
    2.3229   -0.1805   -0.0127 C   0  0  0  0  0  0  0  0  0  0  0  0
    3.0597   -0.4518   -1.1416 N   0  0  0  0  0  0  0  0  0  0  0  0
    4.4877   -0.6739   -1.2979 C   0  0  0  0  0  0  0  0  0  0  0  0
    4.8562   -1.9929   -1.9650 C   0  0  0  0  0  0  0  0  0  0  0  0
    4.1378   -2.3177   -3.2664 C   0  0  0  0  0  0  0  0  0  0  0  0
    4.1380   -1.2472   -4.2512 N   0  0  0  0  0  0  0  0  0  0  0  0
    4.7585   -1.1720   -5.4731 C   0  0  0  0  0  0  0  0  0  0  0  0
    4.3947   -0.3484   -6.3031 O   0  0  0  0  0  0  0  0  0  0  0  0
    5.7771   -2.1470   -5.8482 C   0  0  0  0  0  0  0  0  0  0  0  0
    5.2906   -3.3959   -6.2614 C   0  0  0  0  0  0  0  0  0  0  0  0
    6.1794   -4.3939   -6.6312 C   0  0  0  0  0  0  0  0  0  0  0  0
    7.5293   -4.1011   -6.5955 C   0  0  0  0  0  0  0  0  0  0  0  0
    8.0290   -2.8969   -6.2375 N   0  0  0  0  0  0  0  0  0  0  0  0
    7.1507   -1.9118   -5.8755 C   0  0  0  0  0  0  0  0  0  0  0  0
    7.8475   -0.6297   -5.4801 C   0  0  0  0  0  0  0  0  0  0  0  0
    8.8432   -0.6601   -4.7606 O   0  0  0  0  0  0  0  0  0  0  0  0
    7.4687    0.5231   -6.1199 N   0  0  0  0  0  0  0  0  0  0  0  0
    6.5867    1.4828   -5.6325 C   0  0  0  0  0  0  0  0  0  0  0  0
    6.0802    1.4319   -4.3378 C   0  0  0  0  0  0  0  0  0  0  0  0
    4.9990    2.2508   -4.0093 C   0  0  0  0  0  0  0  0  0  0  0  0
    4.4757    3.0955   -4.9771 C   0  0  0  0  0  0  0  0  0  0  0  0
    3.0759    4.0325   -4.6555 Cl  0  0  0  0  0  0  0  0  0  0  0  0
    5.1023    3.1431   -6.2119 C   0  0  0  0  0  0  0  0  0  0  0  0
    6.1699    2.3782   -6.5513 N   0  0  0  0  0  0  0  0  0  0  0  0
    2.9925   -0.0428    1.2980 C   0  0  0  0  0  0  0  0  0  0  0  0
    4.1250    0.7598    1.4513 C   0  0  0  0  0  0  0  0  0  0  0  0
    4.8289    0.7370    2.6525 C   0  0  0  0  0  0  0  0  0  0  0  0
    4.3484   -0.0002    3.7475 C   0  0  0  0  0  0  0  0  0  0  0  0
    5.0929    0.0156    5.0326 C   0  0  0  0  0  0  0  0  0  0  0  0
    5.7203   -1.2355    5.5860 C   0  0  0  0  0  0  0  0  0  0  0  0
    6.4161   -1.3888    6.6837 N   0  0  0  0  0  0  0  0  0  0  0  0
    6.7237   -2.7420    6.7587 C   0  0  0  0  0  0  0  0  0  0  0  0
    7.4485   -3.3964    7.6981 C   0  0  0  0  0  0  0  0  0  0  0  0
    7.6560   -4.8787    7.5236 C   0  0  0  0  0  0  0  0  0  0  0  0
    8.5675   -5.3409    6.5530 C   0  0  0  0  0  0  0  0  0  0  0  0
    8.8230   -6.7045    6.4101 C   0  0  0  0  0  0  0  0  0  0  0  0
    8.2004   -7.6132    7.2618 C   0  0  0  0  0  0  0  0  0  0  0  0
    7.3038   -7.1628    8.2445 C   0  0  0  0  0  0  0  0  0  0  0  0
    6.6057   -8.4028    9.3421 S   0  0  0  0  0  0  0  0  0  0  0  0
    5.6138   -9.0376    8.4756 O   0  0  0  0  0  0  0  0  0  0  0  0
    7.7684   -9.2369    9.6490 O   0  0  0  0  0  0  0  0  0  0  0  0
    6.0697   -7.6706   10.4808 O   0  5  0  0  0  0  0  0  0  0  0  0
    7.0168   -5.8074    8.3687 C   0  0  0  0  0  0  0  0  0  0  0  0
    6.1363   -5.3516    9.2711 F   0  0  0  0  0  0  0  0  0  0  0  0
    8.0709   -2.7599    8.8294 C   0  0  0  0  0  0  0  0  0  0  0  0
    8.8888   -3.3263    9.7921 C   0  0  0  0  0  0  0  0  0  0  0  0
    9.2391   -2.3308   10.7108 C   0  0  0  0  0  0  0  0  0  0  0  0
    8.6526   -1.1410   10.3116 C   0  0  0  0  0  0  0  0  0  0  0  0
    7.9404   -1.4191    9.1567 N   0  0  0  0  0  0  0  0  0  0  0  0
    8.7217    0.1489   10.9492 C   0  0  0  0  0  0  0  0  0  0  0  0
    9.4987    0.2547   12.2341 C   0  0  0  0  0  0  0  0  0  0  0  0
    8.8071    0.3508   13.4578 C   0  0  0  0  0  0  0  0  0  0  0  0
    9.5049    0.4146   14.6630 C   0  0  0  0  0  0  0  0  0  0  0  0
   10.8954    0.3344   14.6576 C   0  0  0  0  0  0  0  0  0  0  0  0
   11.5931    0.2135   13.4449 C   0  0  0  0  0  0  0  0  0  0  0  0
   13.3777    0.0261   13.5344 S   0  0  0  0  0  0  0  0  0  0  0  0
   13.8091    1.3977   13.7971 O   0  0  0  0  0  0  0  0  0  0  0  0
   13.5405   -0.8911   14.6632 O   0  0  0  0  0  0  0  0  0  0  0  0
   13.7840   -0.5260   12.2489 O   0  5  0  0  0  0  0  0  0  0  0  0
   10.9057    0.1936   12.2367 C   0  0  0  0  0  0  0  0  0  0  0  0
   11.5465    0.1244   11.0607 F   0  0  0  0  0  0  0  0  0  0  0  0
    8.1111    1.2707   10.4948 C   0  0  0  0  0  0  0  0  0  0  0  0
    7.3327    1.4419    9.3570 N   0  0  0  0  0  0  0  0  0  0  0  0
    6.9328    2.6900    9.3805 C   0  0  0  0  0  0  0  0  0  0  0  0
    6.1047    3.4341    8.3729 C   0  0  0  0  0  0  0  0  0  0  0  0
    5.7998    4.8821    8.5366 C   0  0  0  0  0  0  0  0  0  0  0  0
    6.8354    5.8265    8.4075 C   0  0  0  0  0  0  0  0  0  0  0  0
    6.5671    7.1917    8.5101 C   0  0  0  0  0  0  0  0  0  0  0  0
    5.2558    7.6249    8.6899 C   0  0  0  0  0  0  0  0  0  0  0  0
    4.2131    6.6924    8.7964 C   0  0  0  0  0  0  0  0  0  0  0  0
    2.5358    7.3309    8.8752 S   0  0  0  0  0  0  0  0  0  0  0  0
    2.4467    7.7667   10.2658 O   0  0  0  0  0  0  0  0  0  0  0  0
    2.5742    8.4134    7.8907 O   0  0  0  0  0  0  0  0  0  0  0  0
    1.6782    6.2148    8.4997 O   0  5  0  0  0  0  0  0  0  0  0  0
    4.4823    5.3300    8.7539 C   0  0  0  0  0  0  0  0  0  0  0  0
    3.5136    4.4135    8.8926 F   0  0  0  0  0  0  0  0  0  0  0  0
    5.6731    2.7869    7.2737 C   0  0  0  0  0  0  0  0  0  0  0  0
    4.8849    3.3870    6.2026 C   0  0  0  0  0  0  0  0  0  0  0  0
    4.5822    2.4421    5.3009 C   0  0  0  0  0  0  0  0  0  0  0  0
    5.1915    1.1751    5.7110 C   0  0  0  0  0  0  0  0  0  0  0  0
    5.8278    1.4767    6.8875 N   0  0  0  0  0  0  0  0  0  0  0  0
    7.3947    3.4491   10.5506 C   0  0  0  0  0  0  0  0  0  0  0  0
    8.1495    2.5518   11.1710 C   0  0  0  0  0  0  0  0  0  0  0  0
    6.1314   -3.3714    5.5976 C   0  0  0  0  0  0  0  0  0  0  0  0
    5.5387   -2.4772    4.8166 C   0  0  0  0  0  0  0  0  0  0  0  0
    3.1423   -0.7053    3.6183 C   0  0  0  0  0  0  0  0  0  0  0  0
    2.4756   -0.7436    2.3912 C   0  0  0  0  0  0  0  0  0  0  0  0
    2.5381   -0.5038   -1.9749 H   0  0  0  0  0  0  0  0  0  0  0  0
    4.9365   -0.6545   -0.3268 H   0  0  0  0  0  0  0  0  0  0  0  0
    4.8460    0.1017   -1.9421 H   0  0  0  0  0  0  0  0  0  0  0  0
    4.6436   -2.7791   -1.2710 H   0  0  0  0  0  0  0  0  0  0  0  0
    5.8895   -1.8997   -2.2268 H   0  0  0  0  0  0  0  0  0  0  0  0
    3.1207   -2.5550   -3.0340 H   0  0  0  0  0  0  0  0  0  0  0  0
    4.6730   -3.1318   -3.7088 H   0  0  0  0  0  0  0  0  0  0  0  0
    3.6113   -0.4534   -4.0027 H   0  0  0  0  0  0  0  0  0  0  0  0
    4.2741   -3.5716   -6.2901 H   0  0  0  0  0  0  0  0  0  0  0  0
    5.8436   -5.3249   -6.9235 H   0  0  0  0  0  0  0  0  0  0  0  0
    8.1949   -4.8450   -6.8574 H   0  0  0  0  0  0  0  0  0  0  0  0
    7.8581    0.6872   -7.0091 H   0  0  0  0  0  0  0  0  0  0  0  0
    6.4957    0.8013   -3.6345 H   0  0  0  0  0  0  0  0  0  0  0  0
    4.5946    2.2282   -3.0601 H   0  0  0  0  0  0  0  0  0  0  0  0
    4.7342    3.8009   -6.9167 H   0  0  0  0  0  0  0  0  0  0  0  0
    4.4387    1.3669    0.6780 H   0  0  0  0  0  0  0  0  0  0  0  0
    5.7108    1.2660    2.7390 H   0  0  0  0  0  0  0  0  0  0  0  0
    9.0505   -4.6637    5.9421 H   0  0  0  0  0  0  0  0  0  0  0  0
    9.4693   -7.0378    5.6779 H   0  0  0  0  0  0  0  0  0  0  0  0
    8.3986   -8.6219    7.1706 H   0  0  0  0  0  0  0  0  0  0  0  0
    9.1886   -4.3132    9.8263 H   0  0  0  0  0  0  0  0  0  0  0  0
    9.8335   -2.4609   11.5443 H   0  0  0  0  0  0  0  0  0  0  0  0
    7.4181   -0.7611    8.6435 H   0  0  0  0  0  0  0  0  0  0  0  0
    7.7754    0.3742   13.4620 H   0  0  0  0  0  0  0  0  0  0  0  0
    8.9944    0.5206   15.5536 H   0  0  0  0  0  0  0  0  0  0  0  0
   11.4152    0.3640   15.5486 H   0  0  0  0  0  0  0  0  0  0  0  0
    7.8013    5.5064    8.2355 H   0  0  0  0  0  0  0  0  0  0  0  0
    7.3365    7.8771    8.4530 H   0  0  0  0  0  0  0  0  0  0  0  0
    5.0505    8.6348    8.7450 H   0  0  0  0  0  0  0  0  0  0  0  0
    4.6054    4.3789    6.1479 H   0  0  0  0  0  0  0  0  0  0  0  0
    4.0111    2.5848    4.4533 H   0  0  0  0  0  0  0  0  0  0  0  0
    6.3454    0.8186    7.4055 H   0  0  0  0  0  0  0  0  0  0  0  0
    7.1867    4.4236   10.8191 H   0  0  0  0  0  0  0  0  0  0  0  0
    8.6947    2.7419   12.0264 H   0  0  0  0  0  0  0  0  0  0  0  0
    6.1656   -4.3842    5.4025 H   0  0  0  0  0  0  0  0  0  0  0  0
    5.0720   -2.6161    3.9067 H   0  0  0  0  0  0  0  0  0  0  0  0
    2.7457   -1.1981    4.4337 H   0  0  0  0  0  0  0  0  0  0  0  0
    1.6042   -1.2876    2.2923 H   0  0  0  0  0  0  0  0  0  0  0  0
  1  2  2  0  0  0  0
  2  3  1  0  0  0  0
  2 26  1  0  0  0  0
  3  4  1  0  0  0  0
  3 89  1  0  0  0  0
  4  5  1  0  0  0  0
  4 90  1  0  0  0  0
  4 91  1  0  0  0  0
  5  6  1  0  0  0  0
  5 92  1  0  0  0  0
  5 93  1  0  0  0  0
  6  7  1  0  0  0  0
  6 94  1  0  0  0  0
  6 95  1  0  0  0  0
  7  8  1  0  0  0  0
  7 96  1  0  0  0  0
  8  9  2  0  0  0  0
  8 10  1  0  0  0  0
 10 11  1  0  0  0  0
 10 15  2  0  0  0  0
 11 12  2  0  0  0  0
 11 97  1  0  0  0  0
 12 13  1  0  0  0  0
 12 98  1  0  0  0  0
 13 14  2  0  0  0  0
 13 99  1  0  0  0  0
 14 15  1  0  0  0  0
 15 16  1  0  0  0  0
 16 17  2  0  0  0  0
 16 18  1  0  0  0  0
 18 19  1  0  0  0  0
 18100  1  0  0  0  0
 19 20  1  0  0  0  0
 19 25  2  0  0  0  0
 20 21  2  0  0  0  0
 20101  1  0  0  0  0
 21 22  1  0  0  0  0
 21102  1  0  0  0  0
 22 23  1  0  0  0  0
 22 24  2  0  0  0  0
 24 25  1  0  0  0  0
 24103  1  0  0  0  0
 26 27  1  0  0  0  0
 26 88  2  0  0  0  0
 27 28  2  0  0  0  0
 27104  1  0  0  0  0
 28 29  1  0  0  0  0
 28105  1  0  0  0  0
 29 30  1  0  0  0  0
 29 87  2  0  0  0  0
 30 31  1  0  0  0  0
 30 81  2  0  0  0  0
 31 32  2  0  0  0  0
 31 86  1  0  0  0  0
 32 33  1  0  0  0  0
 33 34  2  0  0  0  0
 33 85  1  0  0  0  0
 34 35  1  0  0  0  0
 34 46  1  0  0  0  0
 35 36  1  0  0  0  0
 35 44  2  0  0  0  0
 36 37  2  0  0  0  0
 36106  1  0  0  0  0
 37 38  1  0  0  0  0
 37107  1  0  0  0  0
 38 39  2  0  0  0  0
 38108  1  0  0  0  0
 39 40  1  0  0  0  0
 39 44  1  0  0  0  0
 40 41  2  0  0  0  0
 40 42  2  0  0  0  0
 40 43  1  0  0  0  0
 44 45  1  0  0  0  0
 46 47  2  0  0  0  0
 46 50  1  0  0  0  0
 47 48  1  0  0  0  0
 47109  1  0  0  0  0
 48 49  2  0  0  0  0
 48110  1  0  0  0  0
 49 50  1  0  0  0  0
 49 51  1  0  0  0  0
 50111  1  0  0  0  0
 51 52  1  0  0  0  0
 51 63  2  0  0  0  0
 52 53  1  0  0  0  0
 52 61  2  0  0  0  0
 53 54  2  0  0  0  0
 53112  1  0  0  0  0
 54 55  1  0  0  0  0
 54113  1  0  0  0  0
 55 56  2  0  0  0  0
 55114  1  0  0  0  0
 56 57  1  0  0  0  0
 56 61  1  0  0  0  0
 57 58  2  0  0  0  0
 57 59  2  0  0  0  0
 57 60  1  0  0  0  0
 61 62  1  0  0  0  0
 63 64  1  0  0  0  0
 63 84  1  0  0  0  0
 64 65  2  0  0  0  0
 65 66  1  0  0  0  0
 65 83  1  0  0  0  0
 66 67  1  0  0  0  0
 66 78  2  0  0  0  0
 67 68  1  0  0  0  0
 67 76  2  0  0  0  0
 68 69  2  0  0  0  0
 68115  1  0  0  0  0
 69 70  1  0  0  0  0
 69116  1  0  0  0  0
 70 71  2  0  0  0  0
 70117  1  0  0  0  0
 71 72  1  0  0  0  0
 71 76  1  0  0  0  0
 72 73  2  0  0  0  0
 72 74  2  0  0  0  0
 72 75  1  0  0  0  0
 76 77  1  0  0  0  0
 78 79  1  0  0  0  0
 78 82  1  0  0  0  0
 79 80  2  0  0  0  0
 79118  1  0  0  0  0
 80 81  1  0  0  0  0
 80119  1  0  0  0  0
 81 82  1  0  0  0  0
 82120  1  0  0  0  0
 83 84  2  0  0  0  0
 83121  1  0  0  0  0
 84122  1  0  0  0  0
 85 86  2  0  0  0  0
 85123  1  0  0  0  0
 86124  1  0  0  0  0
 87 88  1  0  0  0  0
 87125  1  0  0  0  0
 88126  1  0  0  0  0
M  CHG  3  43  -1  60  -1  75  -1
M  END
$$$$
