6_2_8203
 OpenBabel04152301373D

133142  0  0  1  0  0  0  0  0999 V2000
    0.4992   -8.5259    3.6031 C   0  0  0  0  0  0  0  0  0  0  0  0
    1.8766   -8.1058    3.2028 C   0  0  0  0  0  0  0  0  0  0  0  0
    2.1149   -7.3304    2.0301 C   0  0  0  0  0  0  0  0  0  0  0  0
    3.3980   -6.8529    1.8633 C   0  0  0  0  0  0  0  0  0  0  0  0
    4.0114   -5.9532    0.8852 C   0  0  0  0  0  0  0  0  0  0  0  0
    5.2353   -5.9203    0.7080 O   0  0  0  0  0  0  0  0  0  0  0  0
    3.3230   -5.0730    0.0782 N   0  0  0  0  0  0  0  0  0  0  0  0
    1.9330   -4.6308   -0.2014 C   0  0  2  0  0  0  0  0  0  0  0  0
    0.9502   -4.7892    0.9567 C   0  0  0  0  0  0  0  0  0  0  0  0
    0.1770   -3.6004    1.5392 C   0  0  0  0  0  0  0  0  0  0  0  0
   -1.0043   -3.1685    0.6819 C   0  0  0  0  0  0  0  0  0  0  0  0
   -0.3378   -4.0574    2.9215 C   0  0  0  0  0  0  0  0  0  0  0  0
    1.3542   -5.1561   -1.5438 C   0  0  0  0  0  0  0  0  0  0  0  0
    0.6473   -4.4001   -2.2200 O   0  0  0  0  0  0  0  0  0  0  0  0
    1.4492   -6.4397   -1.9895 N   0  0  0  0  0  0  0  0  0  0  0  0
    2.2574   -7.5805   -1.5893 C   0  0  0  0  0  0  0  0  0  0  0  0
    1.4995   -8.5969   -0.7331 C   0  0  0  0  0  0  0  0  0  0  0  0
    0.9201   -9.7541   -1.5107 C   0  0  0  0  0  0  0  0  0  0  0  0
    1.9465  -10.6548   -2.0443 N   0  0  0  0  0  0  0  0  0  0  0  0
    1.7668  -11.7403   -2.8943 C   0  0  0  0  0  0  0  0  0  0  0  0
    2.6133  -12.5985   -3.0160 O   0  0  0  0  0  0  0  0  0  0  0  0
    0.4895  -11.8110   -3.6301 C   0  0  0  0  0  0  0  0  0  0  0  0
   -0.2667  -12.9833   -3.6869 C   0  0  0  0  0  0  0  0  0  0  0  0
   -1.5781  -12.9037   -4.1524 C   0  0  0  0  0  0  0  0  0  0  0  0
   -2.1262  -11.6444   -4.4373 C   0  0  0  0  0  0  0  0  0  0  0  0
   -3.5317  -11.4726   -4.7865 C   0  0  0  0  0  0  0  0  0  0  0  0
   -4.5062  -12.0968   -3.8536 C   0  0  0  0  0  0  0  0  0  0  0  0
   -5.2551  -13.1267   -4.0743 N   0  0  0  0  0  0  0  0  0  0  0  0
   -6.0620  -13.2521   -2.9448 C   0  0  0  0  0  0  0  0  0  0  0  0
   -7.3162  -13.7797   -3.0291 C   0  0  0  0  0  0  0  0  0  0  0  0
   -8.5001  -13.3907   -2.1640 C   0  0  0  0  0  0  0  0  0  0  0  0
   -9.6917  -14.1360   -2.3345 C   0  0  0  0  0  0  0  0  0  0  0  0
  -10.9256  -13.6779   -1.8591 C   0  0  0  0  0  0  0  0  0  0  0  0
  -10.9891  -12.5013   -1.1261 C   0  0  0  0  0  0  0  0  0  0  0  0
   -9.8186  -11.7824   -0.8802 C   0  0  0  0  0  0  0  0  0  0  0  0
   -9.9422  -10.2956    0.1230 S   0  0  0  0  0  0  0  0  0  0  0  0
  -10.5678   -9.3650   -0.8111 O   0  0  0  0  0  0  0  0  0  0  0  0
  -10.7988  -10.7447    1.2209 O   0  0  0  0  0  0  0  0  0  0  0  0
   -8.5757   -9.9846    0.5250 O   0  5  0  0  0  0  0  0  0  0  0  0
   -8.6042  -12.1925   -1.4222 C   0  0  0  0  0  0  0  0  0  0  0  0
   -7.5664  -11.3575   -1.3414 F   0  0  0  0  0  0  0  0  0  0  0  0
   -7.5219  -14.4341   -4.2989 C   0  0  0  0  0  0  0  0  0  0  0  0
   -6.9171  -15.4669   -4.9855 C   0  0  0  0  0  0  0  0  0  0  0  0
   -6.9540  -15.0678   -6.3548 C   0  0  0  0  0  0  0  0  0  0  0  0
   -7.6304  -13.8475   -6.4349 C   0  0  0  0  0  0  0  0  0  0  0  0
   -8.2645  -13.7444   -5.2272 N   0  0  0  0  0  0  0  0  0  0  0  0
   -7.6285  -12.8016   -7.4383 C   0  0  0  0  0  0  0  0  0  0  0  0
   -6.8895  -13.1199   -8.7174 C   0  0  0  0  0  0  0  0  0  0  0  0
   -5.6088  -12.5973   -8.9953 C   0  0  0  0  0  0  0  0  0  0  0  0
   -4.8704  -13.0487  -10.0930 C   0  0  0  0  0  0  0  0  0  0  0  0
   -5.3866  -14.0607  -10.8976 C   0  0  0  0  0  0  0  0  0  0  0  0
   -6.6531  -14.5994  -10.6209 C   0  0  0  0  0  0  0  0  0  0  0  0
   -7.1985  -15.9908  -11.6144 S   0  0  0  0  0  0  0  0  0  0  0  0
   -7.5335  -15.3476  -12.8831 O   0  0  0  0  0  0  0  0  0  0  0  0
   -6.0031  -16.8350  -11.6533 O   0  0  0  0  0  0  0  0  0  0  0  0
   -8.3217  -16.5823  -10.8977 O   0  5  0  0  0  0  0  0  0  0  0  0
   -7.4091  -14.1189   -9.5580 C   0  0  0  0  0  0  0  0  0  0  0  0
   -8.6241  -14.6132   -9.2758 F   0  0  0  0  0  0  0  0  0  0  0  0
   -8.0164  -11.5089   -7.2215 C   0  0  0  0  0  0  0  0  0  0  0  0
   -7.5381  -10.4746   -8.0151 N   0  0  0  0  0  0  0  0  0  0  0  0
   -7.4914   -9.4463   -7.2133 C   0  0  0  0  0  0  0  0  0  0  0  0
   -6.3988   -8.4509   -7.2299 C   0  0  0  0  0  0  0  0  0  0  0  0
   -6.6243   -7.0040   -7.4192 C   0  0  0  0  0  0  0  0  0  0  0  0
   -7.6572   -6.5582   -8.2630 C   0  0  0  0  0  0  0  0  0  0  0  0
   -8.0722   -5.2215   -8.2445 C   0  0  0  0  0  0  0  0  0  0  0  0
   -7.4547   -4.3126   -7.3886 C   0  0  0  0  0  0  0  0  0  0  0  0
   -6.4062   -4.7343   -6.5616 C   0  0  0  0  0  0  0  0  0  0  0  0
   -5.6772   -3.5070   -5.4676 S   0  0  0  0  0  0  0  0  0  0  0  0
   -5.3368   -2.4352   -6.4038 O   0  0  0  0  0  0  0  0  0  0  0  0
   -6.7888   -3.2053   -4.5693 O   0  0  0  0  0  0  0  0  0  0  0  0
   -4.5281   -4.1567   -4.8511 O   0  5  0  0  0  0  0  0  0  0  0  0
   -5.9933   -6.0627   -6.5734 C   0  0  0  0  0  0  0  0  0  0  0  0
   -5.0490   -6.4921   -5.7249 F   0  0  0  0  0  0  0  0  0  0  0  0
   -5.2747   -9.0990   -6.8518 C   0  0  0  0  0  0  0  0  0  0  0  0
   -3.8952   -8.7247   -7.0731 C   0  0  0  0  0  0  0  0  0  0  0  0
   -3.1095   -9.6842   -6.5434 C   0  0  0  0  0  0  0  0  0  0  0  0
   -3.9320  -10.6175   -5.7546 C   0  0  0  0  0  0  0  0  0  0  0  0
   -5.1941  -10.2861   -6.1332 N   0  0  0  0  0  0  0  0  0  0  0  0
   -8.3168   -9.5426   -6.0225 C   0  0  0  0  0  0  0  0  0  0  0  0
   -8.6053  -10.8465   -6.0592 C   0  0  0  0  0  0  0  0  0  0  0  0
   -5.4410  -12.4513   -1.9232 C   0  0  0  0  0  0  0  0  0  0  0  0
   -4.5618  -11.6070   -2.4684 C   0  0  0  0  0  0  0  0  0  0  0  0
   -1.3486  -10.4992   -4.3267 C   0  0  0  0  0  0  0  0  0  0  0  0
   -0.0028  -10.6146   -4.1279 C   0  0  0  0  0  0  0  0  0  0  0  0
    4.3963   -7.5744    3.0748 S   0  0  0  0  0  0  0  0  0  0  0  0
    3.0773   -8.3413    3.8249 C   0  0  0  0  0  0  0  0  0  0  0  0
    3.2856   -9.3950    5.3633 Br  0  0  0  0  0  0  0  0  0  0  0  0
   -0.2064   -8.1677    2.8828 H   0  0  0  0  0  0  0  0  0  0  0  0
    0.2667   -8.1169    4.5641 H   0  0  0  0  0  0  0  0  0  0  0  0
    0.4512   -9.5938    3.6489 H   0  0  0  0  0  0  0  0  0  0  0  0
    1.3685   -7.1372    1.3441 H   0  0  0  0  0  0  0  0  0  0  0  0
    3.9535   -4.5806   -0.4956 H   0  0  0  0  0  0  0  0  0  0  0  0
    2.0477   -3.5735   -0.3192 H   0  0  0  0  0  0  0  0  0  0  0  0
    1.5088   -5.2084    1.7674 H   0  0  0  0  0  0  0  0  0  0  0  0
    0.1682   -5.3656    0.5082 H   0  0  0  0  0  0  0  0  0  0  0  0
    0.8281   -2.7529    1.5909 H   0  0  0  0  0  0  0  0  0  0  0  0
   -1.6959   -3.9801    0.5927 H   0  0  0  0  0  0  0  0  0  0  0  0
   -0.6559   -2.8883   -0.2902 H   0  0  0  0  0  0  0  0  0  0  0  0
   -1.4915   -2.3336    1.1406 H   0  0  0  0  0  0  0  0  0  0  0  0
   -0.9804   -4.9043    2.8006 H   0  0  0  0  0  0  0  0  0  0  0  0
   -0.8824   -3.2592    3.3810 H   0  0  0  0  0  0  0  0  0  0  0  0
    0.4927   -4.3253    3.5407 H   0  0  0  0  0  0  0  0  0  0  0  0
    0.8435   -6.6365   -2.7403 H   0  0  0  0  0  0  0  0  0  0  0  0
    3.0943   -7.2218   -1.0273 H   0  0  0  0  0  0  0  0  0  0  0  0
    2.5550   -8.0843   -2.4851 H   0  0  0  0  0  0  0  0  0  0  0  0
    0.6969   -8.0884   -0.2409 H   0  0  0  0  0  0  0  0  0  0  0  0
    2.2099   -9.0121   -0.0491 H   0  0  0  0  0  0  0  0  0  0  0  0
    0.3496   -9.3646   -2.3279 H   0  0  0  0  0  0  0  0  0  0  0  0
    0.3140  -10.3222   -0.8364 H   0  0  0  0  0  0  0  0  0  0  0  0
    2.8730  -10.4689   -1.7679 H   0  0  0  0  0  0  0  0  0  0  0  0
    0.1355  -13.8866   -3.3915 H   0  0  0  0  0  0  0  0  0  0  0  0
   -2.1384  -13.7600   -4.2857 H   0  0  0  0  0  0  0  0  0  0  0  0
   -9.6491  -15.0437   -2.8237 H   0  0  0  0  0  0  0  0  0  0  0  0
  -11.7860  -14.2137   -2.0531 H   0  0  0  0  0  0  0  0  0  0  0  0
  -11.8943  -12.1608   -0.7659 H   0  0  0  0  0  0  0  0  0  0  0  0
   -6.5242  -16.3373   -4.5943 H   0  0  0  0  0  0  0  0  0  0  0  0
   -6.5510  -15.5898   -7.1486 H   0  0  0  0  0  0  0  0  0  0  0  0
   -9.1046  -13.2614   -5.0536 H   0  0  0  0  0  0  0  0  0  0  0  0
   -5.2113  -11.8711   -8.3791 H   0  0  0  0  0  0  0  0  0  0  0  0
   -3.9492  -12.6347  -10.3054 H   0  0  0  0  0  0  0  0  0  0  0  0
   -4.8385  -14.4147  -11.6971 H   0  0  0  0  0  0  0  0  0  0  0  0
   -8.1150   -7.2250   -8.9040 H   0  0  0  0  0  0  0  0  0  0  0  0
   -8.8356   -4.9095   -8.8649 H   0  0  0  0  0  0  0  0  0  0  0  0
   -7.7693   -3.3300   -7.3639 H   0  0  0  0  0  0  0  0  0  0  0  0
   -3.5688   -7.8714   -7.5531 H   0  0  0  0  0  0  0  0  0  0  0  0
   -2.0878   -9.7540   -6.6712 H   0  0  0  0  0  0  0  0  0  0  0  0
   -5.9809  -10.8373   -5.9179 H   0  0  0  0  0  0  0  0  0  0  0  0
   -8.5983   -8.8161   -5.3457 H   0  0  0  0  0  0  0  0  0  0  0  0
   -9.1775  -11.3299   -5.3493 H   0  0  0  0  0  0  0  0  0  0  0  0
   -5.6457  -12.5197   -0.9140 H   0  0  0  0  0  0  0  0  0  0  0  0
   -4.0558  -10.8199   -2.0332 H   0  0  0  0  0  0  0  0  0  0  0  0
   -1.7853   -9.5666   -4.3944 H   0  0  0  0  0  0  0  0  0  0  0  0
    0.6325   -9.8303   -4.3430 H   0  0  0  0  0  0  0  0  0  0  0  0
  1  2  1  0  0  0  0
  1 88  1  0  0  0  0
  1 89  1  0  0  0  0
  1 90  1  0  0  0  0
  2  3  1  0  0  0  0
  2 86  2  0  0  0  0
  3  4  2  0  0  0  0
  3 91  1  0  0  0  0
  4  5  1  0  0  0  0
  4 85  1  0  0  0  0
  5  6  2  0  0  0  0
  5  7  1  0  0  0  0
  7 92  1  0  0  0  0
  8 13  1  0  0  0  0
  8  9  1  0  0  0  0
  8  7  1  0  0  0  0
  8 93  1  6  0  0  0
  9 10  1  0  0  0  0
  9 94  1  0  0  0  0
  9 95  1  0  0  0  0
 10 11  1  0  0  0  0
 10 12  1  0  0  0  0
 10 96  1  0  0  0  0
 11 97  1  0  0  0  0
 11 98  1  0  0  0  0
 11 99  1  0  0  0  0
 12100  1  0  0  0  0
 12101  1  0  0  0  0
 12102  1  0  0  0  0
 13 14  2  0  0  0  0
 13 15  1  0  0  0  0
 15 16  1  0  0  0  0
 15103  1  0  0  0  0
 16 17  1  0  0  0  0
 16104  1  0  0  0  0
 16105  1  0  0  0  0
 17 18  1  0  0  0  0
 17106  1  0  0  0  0
 17107  1  0  0  0  0
 18 19  1  0  0  0  0
 18108  1  0  0  0  0
 18109  1  0  0  0  0
 19 20  1  0  0  0  0
 19110  1  0  0  0  0
 20 21  2  0  0  0  0
 20 22  1  0  0  0  0
 22 23  1  0  0  0  0
 22 84  2  0  0  0  0
 23 24  2  0  0  0  0
 23111  1  0  0  0  0
 24 25  1  0  0  0  0
 24112  1  0  0  0  0
 25 26  1  0  0  0  0
 25 83  2  0  0  0  0
 26 27  1  0  0  0  0
 26 77  2  0  0  0  0
 27 28  2  0  0  0  0
 27 82  1  0  0  0  0
 28 29  1  0  0  0  0
 29 30  2  0  0  0  0
 29 81  1  0  0  0  0
 30 31  1  0  0  0  0
 30 42  1  0  0  0  0
 31 32  1  0  0  0  0
 31 40  2  0  0  0  0
 32 33  2  0  0  0  0
 32113  1  0  0  0  0
 33 34  1  0  0  0  0
 33114  1  0  0  0  0
 34 35  2  0  0  0  0
 34115  1  0  0  0  0
 35 36  1  0  0  0  0
 35 40  1  0  0  0  0
 36 37  2  0  0  0  0
 36 38  2  0  0  0  0
 36 39  1  0  0  0  0
 40 41  1  0  0  0  0
 42 43  2  0  0  0  0
 42 46  1  0  0  0  0
 43 44  1  0  0  0  0
 43116  1  0  0  0  0
 44 45  2  0  0  0  0
 44117  1  0  0  0  0
 45 46  1  0  0  0  0
 45 47  1  0  0  0  0
 46118  1  0  0  0  0
 47 48  1  0  0  0  0
 47 59  2  0  0  0  0
 48 49  1  0  0  0  0
 48 57  2  0  0  0  0
 49 50  2  0  0  0  0
 49119  1  0  0  0  0
 50 51  1  0  0  0  0
 50120  1  0  0  0  0
 51 52  2  0  0  0  0
 51121  1  0  0  0  0
 52 53  1  0  0  0  0
 52 57  1  0  0  0  0
 53 54  2  0  0  0  0
 53 55  2  0  0  0  0
 53 56  1  0  0  0  0
 57 58  1  0  0  0  0
 59 60  1  0  0  0  0
 59 80  1  0  0  0  0
 60 61  2  0  0  0  0
 61 62  1  0  0  0  0
 61 79  1  0  0  0  0
 62 63  1  0  0  0  0
 62 74  2  0  0  0  0
 63 64  1  0  0  0  0
 63 72  2  0  0  0  0
 64 65  2  0  0  0  0
 64122  1  0  0  0  0
 65 66  1  0  0  0  0
 65123  1  0  0  0  0
 66 67  2  0  0  0  0
 66124  1  0  0  0  0
 67 68  1  0  0  0  0
 67 72  1  0  0  0  0
 68 69  2  0  0  0  0
 68 70  2  0  0  0  0
 68 71  1  0  0  0  0
 72 73  1  0  0  0  0
 74 75  1  0  0  0  0
 74 78  1  0  0  0  0
 75 76  2  0  0  0  0
 75125  1  0  0  0  0
 76 77  1  0  0  0  0
 76126  1  0  0  0  0
 77 78  1  0  0  0  0
 78127  1  0  0  0  0
 79 80  2  0  0  0  0
 79128  1  0  0  0  0
 80129  1  0  0  0  0
 81 82  2  0  0  0  0
 81130  1  0  0  0  0
 82131  1  0  0  0  0
 83 84  1  0  0  0  0
 83132  1  0  0  0  0
 84133  1  0  0  0  0
 85 86  1  0  0  0  0
 86 87  1  0  0  0  0
M  CHG  3  39  -1  56  -1  71  -1
M  END
$$$$
