6_2_7647
 OpenBabel04152301373D

126136  0  0  1  0  0  0  0  0999 V2000
   -1.8184    0.2960    0.9503 O   0  0  0  0  0  0  0  0  0  0  0  0
   -0.6091    0.3268    0.7805 C   0  0  0  0  0  0  0  0  0  0  0  0
    0.2453   -0.6797    1.1157 N   0  0  0  0  0  0  0  0  0  0  0  0
    1.5909   -0.3424    0.8113 C   0  0  0  0  0  0  0  0  0  0  0  0
    1.4495    0.9511    0.0340 C   0  0  1  0  0  0  0  0  0  0  0  0
    1.8081    0.8708   -1.4578 C   0  0  0  0  0  0  0  0  0  0  0  0
    0.5756    0.0943   -2.5726 S   0  0  0  0  0  0  0  0  0  0  0  0
    0.9222   -1.6407   -2.3819 C   0  0  0  0  0  0  0  0  0  0  0  0
    0.1042   -2.4217   -1.5724 C   0  0  0  0  0  0  0  0  0  0  0  0
    0.3311   -3.7809   -1.5235 C   0  0  0  0  0  0  0  0  0  0  0  0
    1.2202   -4.4056   -2.3119 N   0  0  0  0  0  0  0  0  0  0  0  0
    1.9458   -3.6437   -3.1733 C   0  0  0  0  0  0  0  0  0  0  0  0
    2.7035   -4.4430   -4.1932 C   0  0  0  0  0  0  0  0  0  0  0  0
    3.1716   -5.5430   -3.8971 O   0  0  0  0  0  0  0  0  0  0  0  0
    2.8272   -4.0413   -5.5038 N   0  0  0  0  0  0  0  0  0  0  0  0
    2.4610   -2.8140   -6.1874 C   0  0  0  0  0  0  0  0  0  0  0  0
    3.6872   -1.9177   -6.3464 C   0  0  0  0  0  0  0  0  0  0  0  0
    4.6558   -2.4373   -7.4046 C   0  0  0  0  0  0  0  0  0  0  0  0
    4.0635   -2.3960   -8.7349 N   0  0  0  0  0  0  0  0  0  0  0  0
    4.4597   -1.7075   -9.8513 C   0  0  0  0  0  0  0  0  0  0  0  0
    3.6734   -1.5734  -10.7851 O   0  0  0  0  0  0  0  0  0  0  0  0
    5.8208   -1.1399   -9.9350 C   0  0  0  0  0  0  0  0  0  0  0  0
    6.0020    0.0857  -10.5796 C   0  0  0  0  0  0  0  0  0  0  0  0
    7.2831    0.6275  -10.6817 C   0  0  0  0  0  0  0  0  0  0  0  0
    8.3801   -0.0234  -10.0922 C   0  0  0  0  0  0  0  0  0  0  0  0
    9.7379    0.5699  -10.1505 C   0  0  0  0  0  0  0  0  0  0  0  0
   10.8576   -0.1487  -10.8528 C   0  0  0  0  0  0  0  0  0  0  0  0
   12.0989    0.2268  -11.0223 N   0  0  0  0  0  0  0  0  0  0  0  0
   12.7272   -0.8228  -11.6825 C   0  0  0  0  0  0  0  0  0  0  0  0
   13.9962   -0.8956  -12.1523 C   0  0  0  0  0  0  0  0  0  0  0  0
   14.3896   -2.1530  -12.8900 C   0  0  0  0  0  0  0  0  0  0  0  0
   13.7940   -2.4503  -14.1352 C   0  0  0  0  0  0  0  0  0  0  0  0
   14.1012   -3.6309  -14.8109 C   0  0  0  0  0  0  0  0  0  0  0  0
   15.0554   -4.4938  -14.2815 C   0  0  0  0  0  0  0  0  0  0  0  0
   15.6919   -4.1859  -13.0681 C   0  0  0  0  0  0  0  0  0  0  0  0
   16.9704   -5.3188  -12.5126 S   0  0  0  0  0  0  0  0  0  0  0  0
   16.1781   -6.4703  -12.0834 O   0  0  0  0  0  0  0  0  0  0  0  0
   17.7439   -5.5334  -13.7362 O   0  0  0  0  0  0  0  0  0  0  0  0
   17.6900   -4.6230  -11.4552 O   0  5  0  0  0  0  0  0  0  0  0  0
   15.3505   -3.0370  -12.3622 C   0  0  0  0  0  0  0  0  0  0  0  0
   15.8950   -2.7546  -11.1703 F   0  0  0  0  0  0  0  0  0  0  0  0
   14.9622    0.1613  -12.0104 C   0  0  0  0  0  0  0  0  0  0  0  0
   16.2524    0.2244  -12.5050 C   0  0  0  0  0  0  0  0  0  0  0  0
   16.8300    1.4225  -12.0675 C   0  0  0  0  0  0  0  0  0  0  0  0
   15.8851    2.1274  -11.3387 C   0  0  0  0  0  0  0  0  0  0  0  0
   14.7477    1.3380  -11.3065 N   0  0  0  0  0  0  0  0  0  0  0  0
   16.0124    3.4231  -10.7185 C   0  0  0  0  0  0  0  0  0  0  0  0
   17.3209    4.1561  -10.8757 C   0  0  0  0  0  0  0  0  0  0  0  0
   18.1699    4.3347   -9.7645 C   0  0  0  0  0  0  0  0  0  0  0  0
   19.3719    5.0297   -9.8941 C   0  0  0  0  0  0  0  0  0  0  0  0
   19.7662    5.4930  -11.1468 C   0  0  0  0  0  0  0  0  0  0  0  0
   18.9498    5.2805  -12.2691 C   0  0  0  0  0  0  0  0  0  0  0  0
   19.5844    5.8197  -13.8603 S   0  0  0  0  0  0  0  0  0  0  0  0
   19.4337    7.2706  -13.7649 O   0  0  0  0  0  0  0  0  0  0  0  0
   20.9683    5.3459  -13.8181 O   0  0  0  0  0  0  0  0  0  0  0  0
   18.7543    5.1682  -14.8644 O   0  5  0  0  0  0  0  0  0  0  0  0
   17.7239    4.6402  -12.1359 C   0  0  0  0  0  0  0  0  0  0  0  0
   16.8971    4.4778  -13.1791 F   0  0  0  0  0  0  0  0  0  0  0  0
   15.0398    4.0397  -10.0005 C   0  0  0  0  0  0  0  0  0  0  0  0
   13.7503    3.6069   -9.7152 N   0  0  0  0  0  0  0  0  0  0  0  0
   13.2158    4.5398   -8.9645 C   0  0  0  0  0  0  0  0  0  0  0  0
   11.8187    4.6320   -8.4177 C   0  0  0  0  0  0  0  0  0  0  0  0
   11.3653    5.8278   -7.6538 C   0  0  0  0  0  0  0  0  0  0  0  0
   11.2458    7.0642   -8.3181 C   0  0  0  0  0  0  0  0  0  0  0  0
   10.8088    8.1992   -7.6352 C   0  0  0  0  0  0  0  0  0  0  0  0
   10.4375    8.0961   -6.2973 C   0  0  0  0  0  0  0  0  0  0  0  0
   10.5216    6.8615   -5.6342 C   0  0  0  0  0  0  0  0  0  0  0  0
    9.8967    6.7969   -3.9516 S   0  0  0  0  0  0  0  0  0  0  0  0
   10.8539    7.6430   -3.2434 O   0  0  0  0  0  0  0  0  0  0  0  0
    8.5603    7.3721   -4.1066 O   0  0  0  0  0  0  0  0  0  0  0  0
    9.9061    5.3892   -3.5773 O   0  5  0  0  0  0  0  0  0  0  0  0
   11.0096    5.7403   -6.2944 C   0  0  0  0  0  0  0  0  0  0  0  0
   11.1317    4.5540   -5.6824 F   0  0  0  0  0  0  0  0  0  0  0  0
   10.9446    3.6486   -8.7023 C   0  0  0  0  0  0  0  0  0  0  0  0
    9.5490    3.6118   -8.2795 C   0  0  0  0  0  0  0  0  0  0  0  0
    8.9835    2.4851   -8.7382 C   0  0  0  0  0  0  0  0  0  0  0  0
    9.9709    1.7363   -9.5191 C   0  0  0  0  0  0  0  0  0  0  0  0
   11.1099    2.4930   -9.4280 N   0  0  0  0  0  0  0  0  0  0  0  0
   14.1181    5.6564   -8.6556 C   0  0  0  0  0  0  0  0  0  0  0  0
   15.1932    5.3315   -9.3598 C   0  0  0  0  0  0  0  0  0  0  0  0
   11.7443   -1.8728  -11.8330 C   0  0  0  0  0  0  0  0  0  0  0  0
   10.5528   -1.4752  -11.4137 C   0  0  0  0  0  0  0  0  0  0  0  0
    8.1816   -1.2486   -9.4431 C   0  0  0  0  0  0  0  0  0  0  0  0
    6.9216   -1.8347   -9.4254 C   0  0  0  0  0  0  0  0  0  0  0  0
    1.8929   -2.2572   -3.1664 C   0  0  0  0  0  0  0  0  0  0  0  0
    0.0829    1.3643    0.2330 O   0  0  0  0  0  0  0  0  0  0  0  0
   -0.0347   -1.5334    1.5183 H   0  0  0  0  0  0  0  0  0  0  0  0
    2.0523   -1.1014    0.2146 H   0  0  0  0  0  0  0  0  0  0  0  0
    2.2091   -0.2477    1.6795 H   0  0  0  0  0  0  0  0  0  0  0  0
    2.1616    1.6605    0.4008 H   0  0  0  0  0  0  0  0  0  0  0  0
    2.7162    0.3110   -1.5414 H   0  0  0  0  0  0  0  0  0  0  0  0
    1.8726    1.8884   -1.7823 H   0  0  0  0  0  0  0  0  0  0  0  0
   -0.6556   -1.9935   -1.0207 H   0  0  0  0  0  0  0  0  0  0  0  0
   -0.2084   -4.3450   -0.8485 H   0  0  0  0  0  0  0  0  0  0  0  0
    3.2433   -4.7146   -6.0893 H   0  0  0  0  0  0  0  0  0  0  0  0
    1.7173   -2.2987   -5.6161 H   0  0  0  0  0  0  0  0  0  0  0  0
    2.0738   -3.0538   -7.1556 H   0  0  0  0  0  0  0  0  0  0  0  0
    4.1989   -1.8663   -5.4081 H   0  0  0  0  0  0  0  0  0  0  0  0
    3.3471   -0.9534   -6.6616 H   0  0  0  0  0  0  0  0  0  0  0  0
    4.9166   -3.4484   -7.1711 H   0  0  0  0  0  0  0  0  0  0  0  0
    5.5232   -1.8109   -7.4031 H   0  0  0  0  0  0  0  0  0  0  0  0
    3.2555   -2.9467   -8.8492 H   0  0  0  0  0  0  0  0  0  0  0  0
    5.1929    0.5874  -10.9779 H   0  0  0  0  0  0  0  0  0  0  0  0
    7.4263    1.5121  -11.1935 H   0  0  0  0  0  0  0  0  0  0  0  0
   13.1228   -1.7855  -14.5506 H   0  0  0  0  0  0  0  0  0  0  0  0
   13.6246   -3.8626  -15.6964 H   0  0  0  0  0  0  0  0  0  0  0  0
   15.2964   -5.3634  -14.7823 H   0  0  0  0  0  0  0  0  0  0  0  0
   16.7101   -0.4883  -13.0945 H   0  0  0  0  0  0  0  0  0  0  0  0
   17.7971    1.7293  -12.2561 H   0  0  0  0  0  0  0  0  0  0  0  0
   13.9086    1.5769  -10.8504 H   0  0  0  0  0  0  0  0  0  0  0  0
   17.8994    3.9476   -8.8469 H   0  0  0  0  0  0  0  0  0  0  0  0
   19.9654    5.1996   -9.0671 H   0  0  0  0  0  0  0  0  0  0  0  0
   20.6621    5.9946  -11.2506 H   0  0  0  0  0  0  0  0  0  0  0  0
   11.4840    7.1309   -9.3200 H   0  0  0  0  0  0  0  0  0  0  0  0
   10.7610    9.1097   -8.1186 H   0  0  0  0  0  0  0  0  0  0  0  0
   10.0994    8.9297   -5.7915 H   0  0  0  0  0  0  0  0  0  0  0  0
    9.0735    4.3356   -7.7182 H   0  0  0  0  0  0  0  0  0  0  0  0
    8.0085    2.1926   -8.5681 H   0  0  0  0  0  0  0  0  0  0  0  0
   11.9644    2.2338   -9.8425 H   0  0  0  0  0  0  0  0  0  0  0  0
   13.9577    6.4769   -8.0505 H   0  0  0  0  0  0  0  0  0  0  0  0
   16.0343    5.9239   -9.4418 H   0  0  0  0  0  0  0  0  0  0  0  0
   11.9452   -2.8094  -12.2169 H   0  0  0  0  0  0  0  0  0  0  0  0
    9.6470   -1.9669  -11.4664 H   0  0  0  0  0  0  0  0  0  0  0  0
    8.9736   -1.7176   -8.9765 H   0  0  0  0  0  0  0  0  0  0  0  0
    6.7986   -2.7825   -9.0362 H   0  0  0  0  0  0  0  0  0  0  0  0
    2.5549   -1.6985   -3.7273 H   0  0  0  0  0  0  0  0  0  0  0  0
  1  2  2  0  0  0  0
  2  3  1  0  0  0  0
  2 86  1  0  0  0  0
  3  4  1  0  0  0  0
  3 87  1  0  0  0  0
  4  5  1  0  0  0  0
  4 88  1  0  0  0  0
  4 89  1  0  0  0  0
  5 86  1  0  0  0  0
  5  6  1  0  0  0  0
  5 90  1  1  0  0  0
  6  7  1  0  0  0  0
  6 91  1  0  0  0  0
  6 92  1  0  0  0  0
  7  8  1  0  0  0  0
  8  9  1  0  0  0  0
  8 85  2  0  0  0  0
  9 10  2  0  0  0  0
  9 93  1  0  0  0  0
 10 11  1  0  0  0  0
 10 94  1  0  0  0  0
 11 12  2  0  0  0  0
 12 13  1  0  0  0  0
 12 85  1  0  0  0  0
 13 14  2  0  0  0  0
 13 15  1  0  0  0  0
 15 16  1  0  0  0  0
 15 95  1  0  0  0  0
 16 17  1  0  0  0  0
 16 96  1  0  0  0  0
 16 97  1  0  0  0  0
 17 18  1  0  0  0  0
 17 98  1  0  0  0  0
 17 99  1  0  0  0  0
 18 19  1  0  0  0  0
 18100  1  0  0  0  0
 18101  1  0  0  0  0
 19 20  1  0  0  0  0
 19102  1  0  0  0  0
 20 21  2  0  0  0  0
 20 22  1  0  0  0  0
 22 23  1  0  0  0  0
 22 84  2  0  0  0  0
 23 24  2  0  0  0  0
 23103  1  0  0  0  0
 24 25  1  0  0  0  0
 24104  1  0  0  0  0
 25 26  1  0  0  0  0
 25 83  2  0  0  0  0
 26 27  1  0  0  0  0
 26 77  2  0  0  0  0
 27 28  2  0  0  0  0
 27 82  1  0  0  0  0
 28 29  1  0  0  0  0
 29 30  2  0  0  0  0
 29 81  1  0  0  0  0
 30 31  1  0  0  0  0
 30 42  1  0  0  0  0
 31 32  1  0  0  0  0
 31 40  2  0  0  0  0
 32 33  2  0  0  0  0
 32105  1  0  0  0  0
 33 34  1  0  0  0  0
 33106  1  0  0  0  0
 34 35  2  0  0  0  0
 34107  1  0  0  0  0
 35 36  1  0  0  0  0
 35 40  1  0  0  0  0
 36 37  2  0  0  0  0
 36 38  2  0  0  0  0
 36 39  1  0  0  0  0
 40 41  1  0  0  0  0
 42 43  2  0  0  0  0
 42 46  1  0  0  0  0
 43 44  1  0  0  0  0
 43108  1  0  0  0  0
 44 45  2  0  0  0  0
 44109  1  0  0  0  0
 45 46  1  0  0  0  0
 45 47  1  0  0  0  0
 46110  1  0  0  0  0
 47 48  1  0  0  0  0
 47 59  2  0  0  0  0
 48 49  1  0  0  0  0
 48 57  2  0  0  0  0
 49 50  2  0  0  0  0
 49111  1  0  0  0  0
 50 51  1  0  0  0  0
 50112  1  0  0  0  0
 51 52  2  0  0  0  0
 51113  1  0  0  0  0
 52 53  1  0  0  0  0
 52 57  1  0  0  0  0
 53 54  2  0  0  0  0
 53 55  2  0  0  0  0
 53 56  1  0  0  0  0
 57 58  1  0  0  0  0
 59 60  1  0  0  0  0
 59 80  1  0  0  0  0
 60 61  2  0  0  0  0
 61 62  1  0  0  0  0
 61 79  1  0  0  0  0
 62 63  1  0  0  0  0
 62 74  2  0  0  0  0
 63 64  1  0  0  0  0
 63 72  2  0  0  0  0
 64 65  2  0  0  0  0
 64114  1  0  0  0  0
 65 66  1  0  0  0  0
 65115  1  0  0  0  0
 66 67  2  0  0  0  0
 66116  1  0  0  0  0
 67 68  1  0  0  0  0
 67 72  1  0  0  0  0
 68 69  2  0  0  0  0
 68 70  2  0  0  0  0
 68 71  1  0  0  0  0
 72 73  1  0  0  0  0
 74 75  1  0  0  0  0
 74 78  1  0  0  0  0
 75 76  2  0  0  0  0
 75117  1  0  0  0  0
 76 77  1  0  0  0  0
 76118  1  0  0  0  0
 77 78  1  0  0  0  0
 78119  1  0  0  0  0
 79 80  2  0  0  0  0
 79120  1  0  0  0  0
 80121  1  0  0  0  0
 81 82  2  0  0  0  0
 81122  1  0  0  0  0
 82123  1  0  0  0  0
 83 84  1  0  0  0  0
 83124  1  0  0  0  0
 84125  1  0  0  0  0
 85126  1  0  0  0  0
M  CHG  3  39  -1  56  -1  71  -1
M  END
$$$$
