6_2_4518
 OpenBabel04152301363D

153163  0  0  1  0  0  0  0  0999 V2000
    3.7988   -9.1747    3.0125 C   0  0  0  0  0  0  0  0  0  0  0  0
    3.0138   -9.0917    4.2086 O   0  0  0  0  0  0  0  0  0  0  0  0
    2.7652   -7.7944    4.5822 C   0  0  0  0  0  0  0  0  0  0  0  0
    1.5831   -7.1461    4.1867 C   0  0  0  0  0  0  0  0  0  0  0  0
    0.5876   -7.8325    3.2923 C   0  0  0  0  0  0  0  0  0  0  0  0
    1.3565   -5.7961    4.5747 C   0  0  0  0  0  0  0  0  0  0  0  0
    2.2858   -5.0898    5.3576 C   0  0  0  0  0  0  0  0  0  0  0  0
    2.2359   -3.5472    5.6243 C   0  0  2  0  0  0  0  0  0  0  0  0
    1.3040   -2.5454    4.8003 C   0  0  0  0  0  0  0  0  0  0  0  0
    0.0678   -2.7171    4.8503 O   0  0  0  0  0  0  0  0  0  0  0  0
    1.6596   -1.4230    4.0721 N   0  0  0  0  0  0  0  0  0  0  0  0
    2.8808   -0.7278    3.5670 C   0  0  0  0  0  0  0  0  0  0  0  0
    3.4916   -1.3239    2.2677 C   0  0  0  0  0  0  0  0  0  0  0  0
    3.9841   -0.4232    1.1234 C   0  0  0  0  0  0  0  0  0  0  0  0
    5.4319   -0.2359    1.0490 N   0  0  0  0  0  0  0  0  0  0  0  0
    6.4681   -0.7085    0.2695 C   0  0  0  0  0  0  0  0  0  0  0  0
    7.5796   -0.2377    0.5435 O   0  0  0  0  0  0  0  0  0  0  0  0
    6.4074   -1.7204   -0.8443 C   0  0  0  0  0  0  0  0  0  0  0  0
    7.6200   -2.3630   -1.1852 C   0  0  0  0  0  0  0  0  0  0  0  0
    7.7183   -3.2731   -2.2591 C   0  0  0  0  0  0  0  0  0  0  0  0
    6.5945   -3.6003   -3.0243 C   0  0  0  0  0  0  0  0  0  0  0  0
    6.6636   -4.5655   -4.1749 C   0  0  0  0  0  0  0  0  0  0  0  0
    6.3571   -4.1092   -5.5851 C   0  0  0  0  0  0  0  0  0  0  0  0
    6.2074   -4.8200   -6.6768 N   0  0  0  0  0  0  0  0  0  0  0  0
    5.8729   -3.9185   -7.6831 C   0  0  0  0  0  0  0  0  0  0  0  0
    5.6342   -4.1455   -8.9995 C   0  0  0  0  0  0  0  0  0  0  0  0
    5.2927   -2.9591   -9.8655 C   0  0  0  0  0  0  0  0  0  0  0  0
    6.3142   -2.0669  -10.2472 C   0  0  0  0  0  0  0  0  0  0  0  0
    6.0378   -0.9872  -11.0850 C   0  0  0  0  0  0  0  0  0  0  0  0
    4.7490   -0.8162  -11.5836 C   0  0  0  0  0  0  0  0  0  0  0  0
    3.7282   -1.7137  -11.2308 C   0  0  0  0  0  0  0  0  0  0  0  0
    2.1166   -1.4578  -11.9841 S   0  0  0  0  0  0  0  0  0  0  0  0
    1.5980   -0.3398  -11.1978 O   0  0  0  0  0  0  0  0  0  0  0  0
    2.4664   -1.1207  -13.3647 O   0  0  0  0  0  0  0  0  0  0  0  0
    1.4035   -2.7186  -11.8336 O   0  5  0  0  0  0  0  0  0  0  0  0
    3.9881   -2.7710  -10.3649 C   0  0  0  0  0  0  0  0  0  0  0  0
    3.0257   -3.6220   -9.9811 F   0  0  0  0  0  0  0  0  0  0  0  0
    5.7309   -5.4284   -9.6463 C   0  0  0  0  0  0  0  0  0  0  0  0
    5.5497   -5.7304  -10.9868 C   0  0  0  0  0  0  0  0  0  0  0  0
    5.7574   -7.1025  -11.1626 C   0  0  0  0  0  0  0  0  0  0  0  0
    6.0752   -7.6526   -9.9327 C   0  0  0  0  0  0  0  0  0  0  0  0
    6.0483   -6.6173   -9.0123 N   0  0  0  0  0  0  0  0  0  0  0  0
    6.3608   -9.0272   -9.6143 C   0  0  0  0  0  0  0  0  0  0  0  0
    6.3303  -10.0241  -10.7445 C   0  0  0  0  0  0  0  0  0  0  0  0
    5.2077  -10.8586  -10.9088 C   0  0  0  0  0  0  0  0  0  0  0  0
    5.1187  -11.7210  -12.0022 C   0  0  0  0  0  0  0  0  0  0  0  0
    6.1317  -11.7287  -12.9585 C   0  0  0  0  0  0  0  0  0  0  0  0
    7.2497  -10.8918  -12.8116 C   0  0  0  0  0  0  0  0  0  0  0  0
    8.4632  -10.9095  -14.1379 S   0  0  0  0  0  0  0  0  0  0  0  0
    9.1129  -12.2027  -13.9301 O   0  0  0  0  0  0  0  0  0  0  0  0
    7.6204  -10.8355  -15.3318 O   0  0  0  0  0  0  0  0  0  0  0  0
    9.3101   -9.7440  -13.9227 O   0  5  0  0  0  0  0  0  0  0  0  0
    7.3625  -10.0572  -11.7044 C   0  0  0  0  0  0  0  0  0  0  0  0
    8.4310   -9.2682  -11.5205 F   0  0  0  0  0  0  0  0  0  0  0  0
    6.6171   -9.4787   -8.3626 C   0  0  0  0  0  0  0  0  0  0  0  0
    6.7181   -8.7537   -7.1782 N   0  0  0  0  0  0  0  0  0  0  0  0
    6.9444   -9.6338   -6.2348 C   0  0  0  0  0  0  0  0  0  0  0  0
    7.2008   -9.4062   -4.7656 C   0  0  0  0  0  0  0  0  0  0  0  0
    7.5066  -10.5636   -3.8727 C   0  0  0  0  0  0  0  0  0  0  0  0
    8.7171  -11.2646   -4.0406 C   0  0  0  0  0  0  0  0  0  0  0  0
    9.0304  -12.3528   -3.2243 C   0  0  0  0  0  0  0  0  0  0  0  0
    8.1651  -12.7145   -2.1950 C   0  0  0  0  0  0  0  0  0  0  0  0
    6.9715  -12.0045   -1.9989 C   0  0  0  0  0  0  0  0  0  0  0  0
    5.9766  -12.4078   -0.5573 S   0  0  0  0  0  0  0  0  0  0  0  0
    5.1594  -13.5105   -1.0524 O   0  0  0  0  0  0  0  0  0  0  0  0
    6.9914  -12.7844    0.4281 O   0  0  0  0  0  0  0  0  0  0  0  0
    5.2703  -11.1742   -0.2290 O   0  5  0  0  0  0  0  0  0  0  0  0
    6.6242  -10.9602   -2.8497 C   0  0  0  0  0  0  0  0  0  0  0  0
    5.4605  -10.3069   -2.7187 F   0  0  0  0  0  0  0  0  0  0  0  0
    7.1980   -8.1520   -4.2626 C   0  0  0  0  0  0  0  0  0  0  0  0
    7.4328   -7.8082   -2.8609 C   0  0  0  0  0  0  0  0  0  0  0  0
    7.2621   -6.4862   -2.6907 C   0  0  0  0  0  0  0  0  0  0  0  0
    6.9414   -5.8732   -3.9783 C   0  0  0  0  0  0  0  0  0  0  0  0
    6.9668   -6.9328   -4.8617 N   0  0  0  0  0  0  0  0  0  0  0  0
    6.9703  -11.0267   -6.7148 C   0  0  0  0  0  0  0  0  0  0  0  0
    6.8187  -10.8704   -8.0239 C   0  0  0  0  0  0  0  0  0  0  0  0
    5.8400   -2.6070   -7.0684 C   0  0  0  0  0  0  0  0  0  0  0  0
    6.1876   -2.6629   -5.7892 C   0  0  0  0  0  0  0  0  0  0  0  0
    5.3871   -2.9604   -2.6904 C   0  0  0  0  0  0  0  0  0  0  0  0
    5.3009   -2.0141   -1.6394 C   0  0  0  0  0  0  0  0  0  0  0  0
    3.5318   -2.9223    5.9358 N   0  3  1  0  0  0  0  0  0  0  0  0
    3.7572   -2.7777    7.3708 C   0  0  0  0  0  0  0  0  0  0  0  0
    4.7160   -3.0933    5.0795 C   0  0  0  0  0  0  0  0  0  0  0  0
    5.1519   -4.2059    4.0411 C   0  0  0  0  0  0  0  0  0  0  0  0
    4.5497   -4.6159    2.7436 N   0  0  0  0  0  0  0  0  0  0  0  0
    5.3596   -5.5656    1.9845 C   0  0  0  0  0  0  0  0  0  0  0  0
    4.8988   -5.8337    0.5588 C   0  0  0  0  0  0  0  0  0  0  0  0
    3.4154   -6.1221    0.5359 C   0  0  0  0  0  0  0  0  0  0  0  0
    2.7044   -4.9111    1.0576 C   0  0  0  0  0  0  0  0  0  0  0  0
    3.2385   -4.4200    2.3792 C   0  0  0  0  0  0  0  0  0  0  0  0
    2.4721   -3.7349    3.0196 O   0  0  0  0  0  0  0  0  0  0  0  0
    3.3461   -5.8571    5.8898 C   0  0  0  0  0  0  0  0  0  0  0  0
    3.6351   -7.1696    5.4741 C   0  0  0  0  0  0  0  0  0  0  0  0
    4.9471   -7.7837    5.8785 C   0  0  0  0  0  0  0  0  0  0  0  0
    3.9640  -10.2025    2.7649 H   0  0  0  0  0  0  0  0  0  0  0  0
    4.7397   -8.6898    3.1690 H   0  0  0  0  0  0  0  0  0  0  0  0
    3.2788   -8.6938    2.2105 H   0  0  0  0  0  0  0  0  0  0  0  0
    0.9109   -8.8345    3.1017 H   0  0  0  0  0  0  0  0  0  0  0  0
    0.5125   -7.2999    2.3673 H   0  0  0  0  0  0  0  0  0  0  0  0
   -0.3689   -7.8514    3.7716 H   0  0  0  0  0  0  0  0  0  0  0  0
    0.4892   -5.3243    4.2741 H   0  0  0  0  0  0  0  0  0  0  0  0
    1.6306   -3.6703    6.4980 H   0  0  0  0  0  0  0  0  0  0  0  0
    0.8533   -0.9268    3.8022 H   0  0  0  0  0  0  0  0  0  0  0  0
    3.6266   -0.7701    4.3331 H   0  0  0  0  0  0  0  0  0  0  0  0
    2.5758    0.2682    3.3221 H   0  0  0  0  0  0  0  0  0  0  0  0
    2.7428   -1.9626    1.8479 H   0  0  0  0  0  0  0  0  0  0  0  0
    4.4010   -1.7625    2.6220 H   0  0  0  0  0  0  0  0  0  0  0  0
    3.5329    0.5395    1.2440 H   0  0  0  0  0  0  0  0  0  0  0  0
    3.7050   -0.9197    0.2176 H   0  0  0  0  0  0  0  0  0  0  0  0
    5.7521    0.3928    1.7356 H   0  0  0  0  0  0  0  0  0  0  0  0
    8.4643   -2.1588   -0.6280 H   0  0  0  0  0  0  0  0  0  0  0  0
    8.6300   -3.7021   -2.4823 H   0  0  0  0  0  0  0  0  0  0  0  0
    7.2761   -2.2139   -9.9034 H   0  0  0  0  0  0  0  0  0  0  0  0
    6.7838   -0.3190  -11.3340 H   0  0  0  0  0  0  0  0  0  0  0  0
    4.5431   -0.0264  -12.2152 H   0  0  0  0  0  0  0  0  0  0  0  0
    5.3034   -5.0572  -11.7292 H   0  0  0  0  0  0  0  0  0  0  0  0
    5.6860   -7.6159  -12.0550 H   0  0  0  0  0  0  0  0  0  0  0  0
    6.2284   -6.7131   -8.0492 H   0  0  0  0  0  0  0  0  0  0  0  0
    4.4445  -10.8320  -10.2147 H   0  0  0  0  0  0  0  0  0  0  0  0
    4.3066  -12.3499  -12.1019 H   0  0  0  0  0  0  0  0  0  0  0  0
    6.0602  -12.3518  -13.7780 H   0  0  0  0  0  0  0  0  0  0  0  0
    9.3795  -10.9703   -4.7752 H   0  0  0  0  0  0  0  0  0  0  0  0
    9.8992  -12.8867   -3.3829 H   0  0  0  0  0  0  0  0  0  0  0  0
    8.4022  -13.5055   -1.5760 H   0  0  0  0  0  0  0  0  0  0  0  0
    7.6896   -8.4768   -2.1179 H   0  0  0  0  0  0  0  0  0  0  0  0
    7.3444   -5.9835   -1.7932 H   0  0  0  0  0  0  0  0  0  0  0  0
    6.8321   -6.8274   -5.8312 H   0  0  0  0  0  0  0  0  0  0  0  0
    7.0784  -11.8984   -6.1730 H   0  0  0  0  0  0  0  0  0  0  0  0
    6.8416  -11.6408   -8.7102 H   0  0  0  0  0  0  0  0  0  0  0  0
    5.5793   -1.7394   -7.5628 H   0  0  0  0  0  0  0  0  0  0  0  0
    6.3077   -1.8922   -5.1135 H   0  0  0  0  0  0  0  0  0  0  0  0
    4.5363   -3.1876   -3.2285 H   0  0  0  0  0  0  0  0  0  0  0  0
    4.4048   -1.5348   -1.4598 H   0  0  0  0  0  0  0  0  0  0  0  0
    3.3665   -1.9973    5.5391 H   0  0  0  0  0  0  0  0  0  0  0  0
    3.9325   -3.7407    7.8031 H   0  0  0  0  0  0  0  0  0  0  0  0
    2.8953   -2.3346    7.8244 H   0  0  0  0  0  0  0  0  0  0  0  0
    4.6090   -2.1518    7.5368 H   0  0  0  0  0  0  0  0  0  0  0  0
    5.5272   -3.0777    5.7770 H   0  0  0  0  0  0  0  0  0  0  0  0
    4.4263   -2.3687    4.3474 H   0  0  0  0  0  0  0  0  0  0  0  0
    5.1579   -5.1072    4.6177 H   0  0  0  0  0  0  0  0  0  0  0  0
    5.9957   -3.6866    3.6371 H   0  0  0  0  0  0  0  0  0  0  0  0
    5.3554   -6.4965    2.5120 H   0  0  0  0  0  0  0  0  0  0  0  0
    6.3286   -5.1199    1.8991 H   0  0  0  0  0  0  0  0  0  0  0  0
    5.4290   -6.6772    0.1686 H   0  0  0  0  0  0  0  0  0  0  0  0
    5.0960   -4.9695   -0.0405 H   0  0  0  0  0  0  0  0  0  0  0  0
    3.1993   -6.9665    1.1566 H   0  0  0  0  0  0  0  0  0  0  0  0
    3.0935   -6.3439   -0.4601 H   0  0  0  0  0  0  0  0  0  0  0  0
    1.6693   -5.1531    1.1800 H   0  0  0  0  0  0  0  0  0  0  0  0
    2.8577   -4.1266    0.3463 H   0  0  0  0  0  0  0  0  0  0  0  0
    3.9387   -5.4332    6.6206 H   0  0  0  0  0  0  0  0  0  0  0  0
    5.0121   -8.7769    5.4857 H   0  0  0  0  0  0  0  0  0  0  0  0
    5.0111   -7.8174    6.9461 H   0  0  0  0  0  0  0  0  0  0  0  0
    5.7514   -7.1937    5.4914 H   0  0  0  0  0  0  0  0  0  0  0  0
  1  2  1  0  0  0  0
  1 95  1  0  0  0  0
  1 96  1  0  0  0  0
  1 97  1  0  0  0  0
  2  3  1  0  0  0  0
  3  4  1  0  0  0  0
  3 93  2  0  0  0  0
  4  5  1  0  0  0  0
  4  6  2  0  0  0  0
  5 98  1  0  0  0  0
  5 99  1  0  0  0  0
  5100  1  0  0  0  0
  6  7  1  0  0  0  0
  6101  1  0  0  0  0
  7 92  2  0  0  0  0
  8 81  1  0  0  0  0
  8  9  1  0  0  0  0
  8  7  1  0  0  0  0
  8102  1  1  0  0  0
  9 10  2  0  0  0  0
  9 11  1  0  0  0  0
 11 12  1  0  0  0  0
 11103  1  0  0  0  0
 12 13  1  0  0  0  0
 12104  1  0  0  0  0
 12105  1  0  0  0  0
 13 14  1  0  0  0  0
 13106  1  0  0  0  0
 13107  1  0  0  0  0
 14 15  1  0  0  0  0
 14108  1  0  0  0  0
 14109  1  0  0  0  0
 15 16  1  0  0  0  0
 15110  1  0  0  0  0
 16 17  2  0  0  0  0
 16 18  1  0  0  0  0
 18 19  1  0  0  0  0
 18 80  2  0  0  0  0
 19 20  2  0  0  0  0
 19111  1  0  0  0  0
 20 21  1  0  0  0  0
 20112  1  0  0  0  0
 21 22  1  0  0  0  0
 21 79  2  0  0  0  0
 22 23  1  0  0  0  0
 22 73  2  0  0  0  0
 23 24  2  0  0  0  0
 23 78  1  0  0  0  0
 24 25  1  0  0  0  0
 25 26  2  0  0  0  0
 25 77  1  0  0  0  0
 26 27  1  0  0  0  0
 26 38  1  0  0  0  0
 27 28  1  0  0  0  0
 27 36  2  0  0  0  0
 28 29  2  0  0  0  0
 28113  1  0  0  0  0
 29 30  1  0  0  0  0
 29114  1  0  0  0  0
 30 31  2  0  0  0  0
 30115  1  0  0  0  0
 31 32  1  0  0  0  0
 31 36  1  0  0  0  0
 32 33  2  0  0  0  0
 32 34  2  0  0  0  0
 32 35  1  0  0  0  0
 36 37  1  0  0  0  0
 38 39  2  0  0  0  0
 38 42  1  0  0  0  0
 39 40  1  0  0  0  0
 39116  1  0  0  0  0
 40 41  2  0  0  0  0
 40117  1  0  0  0  0
 41 42  1  0  0  0  0
 41 43  1  0  0  0  0
 42118  1  0  0  0  0
 43 44  1  0  0  0  0
 43 55  2  0  0  0  0
 44 45  1  0  0  0  0
 44 53  2  0  0  0  0
 45 46  2  0  0  0  0
 45119  1  0  0  0  0
 46 47  1  0  0  0  0
 46120  1  0  0  0  0
 47 48  2  0  0  0  0
 47121  1  0  0  0  0
 48 49  1  0  0  0  0
 48 53  1  0  0  0  0
 49 50  2  0  0  0  0
 49 51  2  0  0  0  0
 49 52  1  0  0  0  0
 53 54  1  0  0  0  0
 55 56  1  0  0  0  0
 55 76  1  0  0  0  0
 56 57  2  0  0  0  0
 57 58  1  0  0  0  0
 57 75  1  0  0  0  0
 58 59  1  0  0  0  0
 58 70  2  0  0  0  0
 59 60  1  0  0  0  0
 59 68  2  0  0  0  0
 60 61  2  0  0  0  0
 60122  1  0  0  0  0
 61 62  1  0  0  0  0
 61123  1  0  0  0  0
 62 63  2  0  0  0  0
 62124  1  0  0  0  0
 63 64  1  0  0  0  0
 63 68  1  0  0  0  0
 64 65  2  0  0  0  0
 64 66  2  0  0  0  0
 64 67  1  0  0  0  0
 68 69  1  0  0  0  0
 70 71  1  0  0  0  0
 70 74  1  0  0  0  0
 71 72  2  0  0  0  0
 71125  1  0  0  0  0
 72 73  1  0  0  0  0
 72126  1  0  0  0  0
 73 74  1  0  0  0  0
 74127  1  0  0  0  0
 75 76  2  0  0  0  0
 75128  1  0  0  0  0
 76129  1  0  0  0  0
 77 78  2  0  0  0  0
 77130  1  0  0  0  0
 78131  1  0  0  0  0
 79 80  1  0  0  0  0
 79132  1  0  0  0  0
 80133  1  0  0  0  0
 81 82  1  0  0  0  0
 81 83  1  0  0  0  0
 81134  1  6  0  0  0
 82135  1  0  0  0  0
 82136  1  0  0  0  0
 82137  1  0  0  0  0
 83 84  1  0  0  0  0
 83138  1  0  0  0  0
 83139  1  0  0  0  0
 84 85  1  0  0  0  0
 84140  1  0  0  0  0
 84141  1  0  0  0  0
 85 86  1  0  0  0  0
 85 90  1  0  0  0  0
 86 87  1  0  0  0  0
 86142  1  0  0  0  0
 86143  1  0  0  0  0
 87 88  1  0  0  0  0
 87144  1  0  0  0  0
 87145  1  0  0  0  0
 88 89  1  0  0  0  0
 88146  1  0  0  0  0
 88147  1  0  0  0  0
 89 90  1  0  0  0  0
 89148  1  0  0  0  0
 89149  1  0  0  0  0
 90 91  2  0  0  0  0
 92 93  1  0  0  0  0
 92150  1  0  0  0  0
 93 94  1  0  0  0  0
 94151  1  0  0  0  0
 94152  1  0  0  0  0
 94153  1  0  0  0  0
M  CHG  4  35  -1  52  -1  67  -1  81   1
M  END
$$$$
