6_3_7778
 OpenBabel04152301373D

144154  0  0  1  0  0  0  0  0999 V2000
    2.3046    0.7924   -0.0377 C   0  0  0  0  0  0  0  0  0  0  0  0
    1.5312    2.0819   -0.2920 C   0  0  0  0  0  0  0  0  0  0  0  0
    1.4898    2.6197   -1.7507 C   0  0  1  0  0  0  0  0  0  0  0  0
    2.8453    2.3602   -2.4343 C   0  0  0  0  0  0  0  0  0  0  0  0
    0.3811    2.0753   -2.6878 C   0  0  0  0  0  0  0  0  0  0  0  0
   -1.0615    2.5380   -2.3821 C   0  0  1  0  0  0  0  0  0  0  0  0
   -1.7947    1.9160   -1.2646 N   0  3  0  0  0  0  0  0  0  0  0  0
   -2.1430    0.5038   -1.4652 C   0  0  0  0  0  0  0  0  0  0  0  0
   -1.0072   -0.4619   -1.0781 C   0  0  1  0  0  0  0  0  0  0  0  0
   -0.9643   -0.7903    0.4262 C   0  0  0  0  0  0  0  0  0  0  0  0
   -1.7750   -2.0183    0.8228 C   0  0  0  0  0  0  0  0  0  0  0  0
   -1.4009   -3.1857   -0.0822 C   0  0  1  0  0  0  0  0  0  0  0  0
   -1.9313   -4.4937    0.4518 C   0  0  0  0  0  0  0  0  0  0  0  0
   -1.3615   -5.1100    1.3442 O   0  0  0  0  0  0  0  0  0  0  0  0
   -3.0857   -4.8774   -0.1470 O   0  0  0  0  0  0  0  0  0  0  0  0
   -3.5603   -6.1829    0.2234 C   0  0  0  0  0  0  0  0  0  0  0  0
   -3.1715   -7.2235   -0.8282 C   0  0  0  0  0  0  0  0  0  0  0  0
   -1.7431   -7.3885   -0.9162 O   0  0  0  0  0  0  0  0  0  0  0  0
   -1.1455   -6.7454   -1.9475 C   0  0  0  0  0  0  0  0  0  0  0  0
   -1.6844   -6.0616   -2.8003 O   0  0  0  0  0  0  0  0  0  0  0  0
    0.3141   -6.9228   -1.8761 C   0  0  0  0  0  0  0  0  0  0  0  0
    1.1205   -5.8093   -1.6210 C   0  0  0  0  0  0  0  0  0  0  0  0
    2.5106   -5.9278   -1.6646 C   0  0  0  0  0  0  0  0  0  0  0  0
    3.1020   -7.1596   -1.9754 C   0  0  0  0  0  0  0  0  0  0  0  0
    4.5765   -7.2848   -2.0993 C   0  0  0  0  0  0  0  0  0  0  0  0
    5.2006   -7.4694   -3.4549 C   0  0  0  0  0  0  0  0  0  0  0  0
    6.4445   -7.7273   -3.7645 N   0  0  0  0  0  0  0  0  0  0  0  0
    6.4742   -7.8524   -5.1482 C   0  0  0  0  0  0  0  0  0  0  0  0
    7.5320   -8.1122   -5.9534 C   0  0  0  0  0  0  0  0  0  0  0  0
    7.2801   -8.1927   -7.4356 C   0  0  0  0  0  0  0  0  0  0  0  0
    7.0663   -7.0086   -8.1690 C   0  0  0  0  0  0  0  0  0  0  0  0
    6.8656   -7.0548   -9.5482 C   0  0  0  0  0  0  0  0  0  0  0  0
    6.9186   -8.2790  -10.2098 C   0  0  0  0  0  0  0  0  0  0  0  0
    7.1521   -9.4630   -9.4914 C   0  0  0  0  0  0  0  0  0  0  0  0
    7.2735  -10.9841  -10.4401 S   0  0  0  0  0  0  0  0  0  0  0  0
    5.8719  -11.2397  -10.7685 O   0  0  0  0  0  0  0  0  0  0  0  0
    8.1008  -10.5766  -11.5764 O   0  0  0  0  0  0  0  0  0  0  0  0
    7.8991  -11.9571   -9.5555 O   0  5  0  0  0  0  0  0  0  0  0  0
    7.3159   -9.4285   -8.1111 C   0  0  0  0  0  0  0  0  0  0  0  0
    7.4970  -10.5458   -7.3926 F   0  0  0  0  0  0  0  0  0  0  0  0
    8.8817   -8.2867   -5.4866 C   0  0  0  0  0  0  0  0  0  0  0  0
   10.0278   -8.5068   -6.2309 C   0  0  0  0  0  0  0  0  0  0  0  0
   11.1066   -8.6286   -5.3481 C   0  0  0  0  0  0  0  0  0  0  0  0
   10.6341   -8.4697   -4.0554 C   0  0  0  0  0  0  0  0  0  0  0  0
    9.2687   -8.2631   -4.1558 N   0  0  0  0  0  0  0  0  0  0  0  0
   11.3717   -8.5248   -2.8194 C   0  0  0  0  0  0  0  0  0  0  0  0
   12.8481   -8.8114   -2.9011 C   0  0  0  0  0  0  0  0  0  0  0  0
   13.3281  -10.0928   -2.5661 C   0  0  0  0  0  0  0  0  0  0  0  0
   14.6846  -10.3944   -2.6830 C   0  0  0  0  0  0  0  0  0  0  0  0
   15.5631   -9.4339   -3.1790 C   0  0  0  0  0  0  0  0  0  0  0  0
   15.0914   -8.1606   -3.5368 C   0  0  0  0  0  0  0  0  0  0  0  0
   16.2744   -7.0132   -4.2529 S   0  0  0  0  0  0  0  0  0  0  0  0
   16.9979   -6.5527   -3.0694 O   0  0  0  0  0  0  0  0  0  0  0  0
   17.0502   -7.8774   -5.1438 O   0  0  0  0  0  0  0  0  0  0  0  0
   15.4815   -6.0016   -4.9388 O   0  5  0  0  0  0  0  0  0  0  0  0
   13.7475   -7.8394   -3.3820 C   0  0  0  0  0  0  0  0  0  0  0  0
   13.2753   -6.6190   -3.6755 F   0  0  0  0  0  0  0  0  0  0  0  0
   10.8279   -8.3680   -1.5872 C   0  0  0  0  0  0  0  0  0  0  0  0
    9.5089   -8.0974   -1.2396 N   0  0  0  0  0  0  0  0  0  0  0  0
    9.4780   -8.0805    0.0710 C   0  0  0  0  0  0  0  0  0  0  0  0
    8.3207   -7.7875    0.9885 C   0  0  0  0  0  0  0  0  0  0  0  0
    8.5033   -7.7710    2.4675 C   0  0  0  0  0  0  0  0  0  0  0  0
    9.2687   -6.7468    3.0570 C   0  0  0  0  0  0  0  0  0  0  0  0
    9.4526   -6.7025    4.4395 C   0  0  0  0  0  0  0  0  0  0  0  0
    8.8311   -7.6504    5.2480 C   0  0  0  0  0  0  0  0  0  0  0  0
    8.0445   -8.6602    4.6735 C   0  0  0  0  0  0  0  0  0  0  0  0
    7.1708   -9.7620    5.7919 S   0  0  0  0  0  0  0  0  0  0  0  0
    8.2402  -10.6548    6.2292 O   0  0  0  0  0  0  0  0  0  0  0  0
    6.6842   -8.8358    6.8156 O   0  0  0  0  0  0  0  0  0  0  0  0
    6.1179  -10.3726    4.9914 O   0  5  0  0  0  0  0  0  0  0  0  0
    7.9031   -8.7418    3.2929 C   0  0  0  0  0  0  0  0  0  0  0  0
    7.1985   -9.7236    2.7123 F   0  0  0  0  0  0  0  0  0  0  0  0
    7.1130   -7.5093    0.4583 C   0  0  0  0  0  0  0  0  0  0  0  0
    5.9011   -7.2165    1.2194 C   0  0  0  0  0  0  0  0  0  0  0  0
    4.8649   -7.1057    0.3720 C   0  0  0  0  0  0  0  0  0  0  0  0
    5.3492   -7.2812   -0.9969 C   0  0  0  0  0  0  0  0  0  0  0  0
    6.7027   -7.4641   -0.8537 N   0  0  0  0  0  0  0  0  0  0  0  0
   10.7733   -8.3691    0.7048 C   0  0  0  0  0  0  0  0  0  0  0  0
   11.5705   -8.4855   -0.3491 C   0  0  0  0  0  0  0  0  0  0  0  0
    5.1225   -7.6365   -5.6199 C   0  0  0  0  0  0  0  0  0  0  0  0
    4.3030   -7.3543   -4.6159 C   0  0  0  0  0  0  0  0  0  0  0  0
    2.2806   -8.2764   -2.2131 C   0  0  0  0  0  0  0  0  0  0  0  0
    0.8879   -8.1596   -2.1714 C   0  0  0  0  0  0  0  0  0  0  0  0
   -1.7907   -2.8553   -1.5205 C   0  0  0  0  0  0  0  0  0  0  0  0
   -0.9549   -1.6838   -2.0078 C   0  0  0  0  0  0  0  0  0  0  0  0
   -1.0367    4.0623   -2.1916 C   0  0  0  0  0  0  0  0  0  0  0  0
    0.0680    4.5069   -1.2468 C   0  0  0  0  0  0  0  0  0  0  0  0
    1.3458    4.0566   -1.6970 O   0  0  0  0  0  0  0  0  0  0  0  0
    2.2490    0.5421    1.0011 H   0  0  0  0  0  0  0  0  0  0  0  0
    3.3283    0.9294   -0.3173 H   0  0  0  0  0  0  0  0  0  0  0  0
    1.8791    0.0009   -0.6185 H   0  0  0  0  0  0  0  0  0  0  0  0
    1.9695    2.8439    0.3180 H   0  0  0  0  0  0  0  0  0  0  0  0
    0.5147    1.8394   -0.0624 H   0  0  0  0  0  0  0  0  0  0  0  0
    3.0130    1.3058   -2.5051 H   0  0  0  0  0  0  0  0  0  0  0  0
    3.6273    2.8077   -1.8571 H   0  0  0  0  0  0  0  0  0  0  0  0
    2.8374    2.7868   -3.4155 H   0  0  0  0  0  0  0  0  0  0  0  0
    0.4002    1.0071   -2.6293 H   0  0  0  0  0  0  0  0  0  0  0  0
    0.6078    2.4686   -3.6567 H   0  0  0  0  0  0  0  0  0  0  0  0
   -1.6217    2.2025   -3.2297 H   0  0  0  0  0  0  0  0  0  0  0  0
   -2.6590    2.4386   -1.1225 H   0  0  0  0  0  0  0  0  0  0  0  0
   -1.1689    1.9453   -0.4597 H   0  0  0  0  0  0  0  0  0  0  0  0
   -2.3786    0.3550   -2.4983 H   0  0  0  0  0  0  0  0  0  0  0  0
   -2.9751    0.2878   -0.8281 H   0  0  0  0  0  0  0  0  0  0  0  0
   -0.0866    0.0582   -1.2418 H   0  0  0  0  0  0  0  0  0  0  0  0
   -1.3467    0.0519    0.9642 H   0  0  0  0  0  0  0  0  0  0  0  0
    0.0563   -1.0067    0.6639 H   0  0  0  0  0  0  0  0  0  0  0  0
   -2.8185   -1.8060    0.7186 H   0  0  0  0  0  0  0  0  0  0  0  0
   -1.5635   -2.2728    1.8403 H   0  0  0  0  0  0  0  0  0  0  0  0
   -0.3407   -3.3298   -0.0890 H   0  0  0  0  0  0  0  0  0  0  0  0
   -4.6263   -6.1560    0.3123 H   0  0  0  0  0  0  0  0  0  0  0  0
   -3.1143   -6.4568    1.1567 H   0  0  0  0  0  0  0  0  0  0  0  0
   -3.5429   -6.9084   -1.7809 H   0  0  0  0  0  0  0  0  0  0  0  0
   -3.5972   -8.1620   -0.5402 H   0  0  0  0  0  0  0  0  0  0  0  0
    0.6874   -4.8989   -1.4003 H   0  0  0  0  0  0  0  0  0  0  0  0
    3.1039   -5.1067   -1.4676 H   0  0  0  0  0  0  0  0  0  0  0  0
    7.0582   -6.0992   -7.6811 H   0  0  0  0  0  0  0  0  0  0  0  0
    6.6790   -6.1873  -10.0752 H   0  0  0  0  0  0  0  0  0  0  0  0
    6.7857   -8.3164  -11.2325 H   0  0  0  0  0  0  0  0  0  0  0  0
   10.0780   -8.5702   -7.2597 H   0  0  0  0  0  0  0  0  0  0  0  0
   12.0876   -8.8066   -5.6146 H   0  0  0  0  0  0  0  0  0  0  0  0
    8.6618   -8.1204   -3.3939 H   0  0  0  0  0  0  0  0  0  0  0  0
   12.6704  -10.8143   -2.2314 H   0  0  0  0  0  0  0  0  0  0  0  0
   15.0356  -11.3238   -2.4037 H   0  0  0  0  0  0  0  0  0  0  0  0
   16.5648   -9.6590   -3.2839 H   0  0  0  0  0  0  0  0  0  0  0  0
    9.6978   -6.0219    2.4609 H   0  0  0  0  0  0  0  0  0  0  0  0
   10.0463   -5.9709    4.8605 H   0  0  0  0  0  0  0  0  0  0  0  0
    8.9493   -7.6101    6.2724 H   0  0  0  0  0  0  0  0  0  0  0  0
    5.8493   -7.1115    2.2447 H   0  0  0  0  0  0  0  0  0  0  0  0
    3.8855   -6.9258    0.6430 H   0  0  0  0  0  0  0  0  0  0  0  0
    7.3193   -7.5541   -1.6159 H   0  0  0  0  0  0  0  0  0  0  0  0
   11.0022   -8.4578    1.7072 H   0  0  0  0  0  0  0  0  0  0  0  0
   12.5894   -8.6400   -0.2939 H   0  0  0  0  0  0  0  0  0  0  0  0
    4.8340   -7.6946   -6.6091 H   0  0  0  0  0  0  0  0  0  0  0  0
    3.2991   -7.1164   -4.6419 H   0  0  0  0  0  0  0  0  0  0  0  0
    2.7103   -9.1915   -2.4204 H   0  0  0  0  0  0  0  0  0  0  0  0
    0.2904   -8.9802   -2.3572 H   0  0  0  0  0  0  0  0  0  0  0  0
   -2.8280   -2.5957   -1.5596 H   0  0  0  0  0  0  0  0  0  0  0  0
   -1.6157   -3.7063   -2.1450 H   0  0  0  0  0  0  0  0  0  0  0  0
    0.0628   -2.0045   -2.0880 H   0  0  0  0  0  0  0  0  0  0  0  0
   -1.3610   -1.3790   -2.9496 H   0  0  0  0  0  0  0  0  0  0  0  0
   -1.9785    4.3745   -1.7911 H   0  0  0  0  0  0  0  0  0  0  0  0
   -0.8510    4.5088   -3.1461 H   0  0  0  0  0  0  0  0  0  0  0  0
   -0.1214    4.1032   -0.2741 H   0  0  0  0  0  0  0  0  0  0  0  0
    0.0774    5.5764   -1.2166 H   0  0  0  0  0  0  0  0  0  0  0  0
  1  2  1  0  0  0  0
  1 89  1  0  0  0  0
  1 90  1  0  0  0  0
  1 91  1  0  0  0  0
  2 92  1  0  0  0  0
  2 93  1  0  0  0  0
  3  2  1  1  0  0  0
  3  4  1  0  0  0  0
  3  5  1  0  0  0  0
  3 88  1  0  0  0  0
  4 94  1  0  0  0  0
  4 95  1  0  0  0  0
  4 96  1  0  0  0  0
  5  6  1  0  0  0  0
  5 97  1  0  0  0  0
  5 98  1  0  0  0  0
  6  7  1  0  0  0  0
  6 86  1  0  0  0  0
  6 99  1  6  0  0  0
  7  8  1  0  0  0  0
  7100  1  0  0  0  0
  7101  1  0  0  0  0
  8  9  1  0  0  0  0
  8102  1  0  0  0  0
  8103  1  0  0  0  0
  9 10  1  0  0  0  0
  9 85  1  0  0  0  0
  9104  1  6  0  0  0
 10 11  1  0  0  0  0
 10105  1  0  0  0  0
 10106  1  0  0  0  0
 11 12  1  0  0  0  0
 11107  1  0  0  0  0
 11108  1  0  0  0  0
 12 13  1  0  0  0  0
 12 84  1  0  0  0  0
 12109  1  1  0  0  0
 13 14  2  0  0  0  0
 13 15  1  0  0  0  0
 15 16  1  0  0  0  0
 16 17  1  0  0  0  0
 16110  1  0  0  0  0
 16111  1  0  0  0  0
 17 18  1  0  0  0  0
 17112  1  0  0  0  0
 17113  1  0  0  0  0
 18 19  1  0  0  0  0
 19 20  2  0  0  0  0
 19 21  1  0  0  0  0
 21 22  1  0  0  0  0
 21 83  2  0  0  0  0
 22 23  2  0  0  0  0
 22114  1  0  0  0  0
 23 24  1  0  0  0  0
 23115  1  0  0  0  0
 24 25  1  0  0  0  0
 24 82  2  0  0  0  0
 25 26  1  0  0  0  0
 25 76  2  0  0  0  0
 26 27  2  0  0  0  0
 26 81  1  0  0  0  0
 27 28  1  0  0  0  0
 28 29  2  0  0  0  0
 28 80  1  0  0  0  0
 29 30  1  0  0  0  0
 29 41  1  0  0  0  0
 30 31  1  0  0  0  0
 30 39  2  0  0  0  0
 31 32  2  0  0  0  0
 31116  1  0  0  0  0
 32 33  1  0  0  0  0
 32117  1  0  0  0  0
 33 34  2  0  0  0  0
 33118  1  0  0  0  0
 34 35  1  0  0  0  0
 34 39  1  0  0  0  0
 35 36  2  0  0  0  0
 35 37  2  0  0  0  0
 35 38  1  0  0  0  0
 39 40  1  0  0  0  0
 41 42  2  0  0  0  0
 41 45  1  0  0  0  0
 42 43  1  0  0  0  0
 42119  1  0  0  0  0
 43 44  2  0  0  0  0
 43120  1  0  0  0  0
 44 45  1  0  0  0  0
 44 46  1  0  0  0  0
 45121  1  0  0  0  0
 46 47  1  0  0  0  0
 46 58  2  0  0  0  0
 47 48  1  0  0  0  0
 47 56  2  0  0  0  0
 48 49  2  0  0  0  0
 48122  1  0  0  0  0
 49 50  1  0  0  0  0
 49123  1  0  0  0  0
 50 51  2  0  0  0  0
 50124  1  0  0  0  0
 51 52  1  0  0  0  0
 51 56  1  0  0  0  0
 52 53  2  0  0  0  0
 52 54  2  0  0  0  0
 52 55  1  0  0  0  0
 56 57  1  0  0  0  0
 58 59  1  0  0  0  0
 58 79  1  0  0  0  0
 59 60  2  0  0  0  0
 60 61  1  0  0  0  0
 60 78  1  0  0  0  0
 61 62  1  0  0  0  0
 61 73  2  0  0  0  0
 62 63  1  0  0  0  0
 62 71  2  0  0  0  0
 63 64  2  0  0  0  0
 63125  1  0  0  0  0
 64 65  1  0  0  0  0
 64126  1  0  0  0  0
 65 66  2  0  0  0  0
 65127  1  0  0  0  0
 66 67  1  0  0  0  0
 66 71  1  0  0  0  0
 67 68  2  0  0  0  0
 67 69  2  0  0  0  0
 67 70  1  0  0  0  0
 71 72  1  0  0  0  0
 73 74  1  0  0  0  0
 73 77  1  0  0  0  0
 74 75  2  0  0  0  0
 74128  1  0  0  0  0
 75 76  1  0  0  0  0
 75129  1  0  0  0  0
 76 77  1  0  0  0  0
 77130  1  0  0  0  0
 78 79  2  0  0  0  0
 78131  1  0  0  0  0
 79132  1  0  0  0  0
 80 81  2  0  0  0  0
 80133  1  0  0  0  0
 81134  1  0  0  0  0
 82 83  1  0  0  0  0
 82135  1  0  0  0  0
 83136  1  0  0  0  0
 84 85  1  0  0  0  0
 84137  1  0  0  0  0
 84138  1  0  0  0  0
 85139  1  0  0  0  0
 85140  1  0  0  0  0
 86 87  1  0  0  0  0
 86141  1  0  0  0  0
 86142  1  0  0  0  0
 87 88  1  0  0  0  0
 87143  1  0  0  0  0
 87144  1  0  0  0  0
M  CHG  4   7   1  38  -1  55  -1  70  -1
M  END
$$$$
