6_3_834
 OpenBabel04152301373D

135145  0  0  1  0  0  0  0  0999 V2000
    0.1967   -0.6117    0.2384 C   0  0  0  0  0  0  0  0  0  0  0  0
    0.3634   -0.1836   -1.1195 O   0  0  0  0  0  0  0  0  0  0  0  0
    0.5776    1.1704   -1.1212 C   0  0  0  0  0  0  0  0  0  0  0  0
   -0.5302    1.9848   -1.3722 C   0  0  0  0  0  0  0  0  0  0  0  0
   -0.4259    3.3575   -1.1954 C   0  0  0  0  0  0  0  0  0  0  0  0
    0.7745    3.8983   -0.7474 C   0  0  0  0  0  0  0  0  0  0  0  0
    1.9029    3.0916   -0.6095 C   0  0  0  0  0  0  0  0  0  0  0  0
    1.8363    1.7141   -0.8430 C   0  0  0  0  0  0  0  0  0  0  0  0
    3.0974    0.8892   -0.7653 C   0  0  0  0  0  0  0  0  0  0  0  0
    4.0271    1.0305   -1.9076 N   0  3  1  0  0  0  0  0  0  0  0  0
    5.3402    0.5082   -1.4902 C   0  0  0  0  0  0  0  0  0  0  0  0
    3.6052    0.3944   -3.1875 C   0  0  1  0  0  0  0  0  0  0  0  0
    3.1731   -1.0770   -3.0698 C   0  0  0  0  0  0  0  0  0  0  0  0
    2.6036    1.2085   -3.9818 C   0  0  0  0  0  0  0  0  0  0  0  0
    1.3067    0.9902   -4.4068 C   0  0  0  0  0  0  0  0  0  0  0  0
    0.8999    2.1508   -5.1115 C   0  0  0  0  0  0  0  0  0  0  0  0
    1.9807    3.0116   -5.1276 C   0  0  0  0  0  0  0  0  0  0  0  0
    2.1679    4.3477   -5.6531 C   0  0  0  0  0  0  0  0  0  0  0  0
    3.2499    4.8696   -5.9061 O   0  0  0  0  0  0  0  0  0  0  0  0
    0.9650    4.9866   -5.8002 O   0  0  0  0  0  0  0  0  0  0  0  0
    1.0310    6.3760   -6.1873 C   0  0  0  0  0  0  0  0  0  0  0  0
    0.9514    7.3404   -4.9953 C   0  0  0  0  0  0  0  0  0  0  0  0
    2.1152    7.2561   -4.1481 O   0  0  0  0  0  0  0  0  0  0  0  0
    1.9630    6.3698   -3.1375 C   0  0  0  0  0  0  0  0  0  0  0  0
    0.9455    5.7342   -2.9175 O   0  0  0  0  0  0  0  0  0  0  0  0
    3.1904    6.1899   -2.3422 C   0  0  0  0  0  0  0  0  0  0  0  0
    3.9677    5.0589   -2.5801 C   0  0  0  0  0  0  0  0  0  0  0  0
    4.9668    4.6867   -1.6843 C   0  0  0  0  0  0  0  0  0  0  0  0
    5.2577    5.4776   -0.5642 C   0  0  0  0  0  0  0  0  0  0  0  0
    6.3934    5.0991    0.3235 C   0  0  0  0  0  0  0  0  0  0  0  0
    6.1946    4.7604    1.7777 C   0  0  0  0  0  0  0  0  0  0  0  0
    7.0952    4.4905    2.6906 N   0  0  0  0  0  0  0  0  0  0  0  0
    6.3997    4.3011    3.8799 C   0  0  0  0  0  0  0  0  0  0  0  0
    6.8872    4.0106    5.1125 C   0  0  0  0  0  0  0  0  0  0  0  0
    5.9077    3.8788    6.2548 C   0  0  0  0  0  0  0  0  0  0  0  0
    5.0742    2.7457    6.3398 C   0  0  0  0  0  0  0  0  0  0  0  0
    4.2120    2.5762    7.4244 C   0  0  0  0  0  0  0  0  0  0  0  0
    4.2087    3.5128    8.4549 C   0  0  0  0  0  0  0  0  0  0  0  0
    5.0513    4.6340    8.3940 C   0  0  0  0  0  0  0  0  0  0  0  0
    5.0375    5.7394    9.8115 S   0  0  0  0  0  0  0  0  0  0  0  0
    3.7464    6.4070    9.6521 O   0  0  0  0  0  0  0  0  0  0  0  0
    5.1037    4.8033   10.9344 O   0  0  0  0  0  0  0  0  0  0  0  0
    6.2068    6.5946    9.6655 O   0  5  0  0  0  0  0  0  0  0  0  0
    5.8817    4.8312    7.2955 C   0  0  0  0  0  0  0  0  0  0  0  0
    6.6705    5.9105    7.1940 F   0  0  0  0  0  0  0  0  0  0  0  0
    8.2846    3.8046    5.4076 C   0  0  0  0  0  0  0  0  0  0  0  0
    8.8650    3.4499    6.6146 C   0  0  0  0  0  0  0  0  0  0  0  0
   10.2529    3.4065    6.4419 C   0  0  0  0  0  0  0  0  0  0  0  0
   10.5374    3.6970    5.1183 C   0  0  0  0  0  0  0  0  0  0  0  0
    9.3220    3.9434    4.4975 N   0  0  0  0  0  0  0  0  0  0  0  0
   11.8246    3.7592    4.4733 C   0  0  0  0  0  0  0  0  0  0  0  0
   13.0515    3.4981    5.3084 C   0  0  0  0  0  0  0  0  0  0  0  0
   13.9109    4.5624    5.6476 C   0  0  0  0  0  0  0  0  0  0  0  0
   15.0503    4.3359    6.4193 C   0  0  0  0  0  0  0  0  0  0  0  0
   15.3092    3.0562    6.9041 C   0  0  0  0  0  0  0  0  0  0  0  0
   14.4407    1.9951    6.6009 C   0  0  0  0  0  0  0  0  0  0  0  0
   14.8043    0.4006    7.3440 S   0  0  0  0  0  0  0  0  0  0  0  0
   15.9729   -0.0268    6.5764 O   0  0  0  0  0  0  0  0  0  0  0  0
   15.0866    0.7632    8.7333 O   0  0  0  0  0  0  0  0  0  0  0  0
   13.6075   -0.4097    7.1625 O   0  5  0  0  0  0  0  0  0  0  0  0
   13.3310    2.2043    5.7907 C   0  0  0  0  0  0  0  0  0  0  0  0
   12.5134    1.2006    5.4408 F   0  0  0  0  0  0  0  0  0  0  0  0
   12.0158    4.0443    3.1620 C   0  0  0  0  0  0  0  0  0  0  0  0
   11.0694    4.3109    2.1813 N   0  0  0  0  0  0  0  0  0  0  0  0
   11.7475    4.5667    1.0898 C   0  0  0  0  0  0  0  0  0  0  0  0
   11.2371    4.8781   -0.2850 C   0  0  0  0  0  0  0  0  0  0  0  0
   12.1678    5.1231   -1.4217 C   0  0  0  0  0  0  0  0  0  0  0  0
   12.9293    4.0595   -1.9398 C   0  0  0  0  0  0  0  0  0  0  0  0
   13.7715    4.2593   -3.0341 C   0  0  0  0  0  0  0  0  0  0  0  0
   13.8156    5.5070   -3.6521 C   0  0  0  0  0  0  0  0  0  0  0  0
   13.0413    6.5674   -3.1581 C   0  0  0  0  0  0  0  0  0  0  0  0
   13.0394    8.0960   -4.1013 S   0  0  0  0  0  0  0  0  0  0  0  0
   14.3573    8.6416   -3.7879 O   0  0  0  0  0  0  0  0  0  0  0  0
   12.8851    7.6061   -5.4718 O   0  0  0  0  0  0  0  0  0  0  0  0
   11.9028    8.8616   -3.6076 O   0  5  0  0  0  0  0  0  0  0  0  0
   12.2512    6.3917   -2.0299 C   0  0  0  0  0  0  0  0  0  0  0  0
   11.5318    7.3954   -1.5078 F   0  0  0  0  0  0  0  0  0  0  0  0
    9.9083    4.9330   -0.4952 C   0  0  0  0  0  0  0  0  0  0  0  0
    9.2859    5.2468   -1.7749 C   0  0  0  0  0  0  0  0  0  0  0  0
    7.9646    5.3695   -1.5961 C   0  0  0  0  0  0  0  0  0  0  0  0
    7.6353    5.0657   -0.2014 C   0  0  0  0  0  0  0  0  0  0  0  0
    8.8503    4.7784    0.3700 N   0  0  0  0  0  0  0  0  0  0  0  0
   13.2057    4.5148    1.2584 C   0  0  0  0  0  0  0  0  0  0  0  0
   13.3145    4.1426    2.5265 C   0  0  0  0  0  0  0  0  0  0  0  0
    4.9949    4.4722    3.5688 C   0  0  0  0  0  0  0  0  0  0  0  0
    4.8116    4.7190    2.2766 C   0  0  0  0  0  0  0  0  0  0  0  0
    4.4983    6.6421   -0.3536 C   0  0  0  0  0  0  0  0  0  0  0  0
    3.4496    6.9858   -1.2247 C   0  0  0  0  0  0  0  0  0  0  0  0
    3.0365    2.4059   -4.4865 O   0  0  0  0  0  0  0  0  0  0  0  0
    0.0280   -1.6681    0.2612 H   0  0  0  0  0  0  0  0  0  0  0  0
   -0.6419   -0.1072    0.6710 H   0  0  0  0  0  0  0  0  0  0  0  0
    1.0795   -0.3794    0.7966 H   0  0  0  0  0  0  0  0  0  0  0  0
   -1.4203    1.5680   -1.6871 H   0  0  0  0  0  0  0  0  0  0  0  0
   -1.2315    3.9710   -1.3945 H   0  0  0  0  0  0  0  0  0  0  0  0
    0.8302    4.9024   -0.5158 H   0  0  0  0  0  0  0  0  0  0  0  0
    2.8009    3.5171   -0.3310 H   0  0  0  0  0  0  0  0  0  0  0  0
    2.8134   -0.1402   -0.6978 H   0  0  0  0  0  0  0  0  0  0  0  0
    3.6295    1.2492    0.0904 H   0  0  0  0  0  0  0  0  0  0  0  0
    4.0502    2.0256   -2.1305 H   0  0  0  0  0  0  0  0  0  0  0  0
    5.2553   -0.5355   -1.2701 H   0  0  0  0  0  0  0  0  0  0  0  0
    5.6709    1.0311   -0.6172 H   0  0  0  0  0  0  0  0  0  0  0  0
    6.0479    0.6497   -2.2802 H   0  0  0  0  0  0  0  0  0  0  0  0
    4.5128    0.3843   -3.7542 H   0  0  0  0  0  0  0  0  0  0  0  0
    2.2637   -1.1379   -2.5093 H   0  0  0  0  0  0  0  0  0  0  0  0
    3.9378   -1.6345   -2.5705 H   0  0  0  0  0  0  0  0  0  0  0  0
    3.0172   -1.4823   -4.0477 H   0  0  0  0  0  0  0  0  0  0  0  0
    0.7415    0.1426   -4.2422 H   0  0  0  0  0  0  0  0  0  0  0  0
   -0.0269    2.3206   -5.5324 H   0  0  0  0  0  0  0  0  0  0  0  0
    0.2155    6.5840   -6.8481 H   0  0  0  0  0  0  0  0  0  0  0  0
    1.9793    6.5302   -6.6583 H   0  0  0  0  0  0  0  0  0  0  0  0
    0.0848    7.1006   -4.4153 H   0  0  0  0  0  0  0  0  0  0  0  0
    0.8978    8.3367   -5.3817 H   0  0  0  0  0  0  0  0  0  0  0  0
    3.8020    4.4924   -3.4267 H   0  0  0  0  0  0  0  0  0  0  0  0
    5.4995    3.8180   -1.8471 H   0  0  0  0  0  0  0  0  0  0  0  0
    5.1015    2.0342    5.5928 H   0  0  0  0  0  0  0  0  0  0  0  0
    3.5803    1.7610    7.4624 H   0  0  0  0  0  0  0  0  0  0  0  0
    3.5846    3.3822    9.2663 H   0  0  0  0  0  0  0  0  0  0  0  0
    8.3595    3.2514    7.4921 H   0  0  0  0  0  0  0  0  0  0  0  0
   10.9464    3.1941    7.1760 H   0  0  0  0  0  0  0  0  0  0  0  0
    9.2116    4.1821    3.5488 H   0  0  0  0  0  0  0  0  0  0  0  0
   13.6952    5.5177    5.3221 H   0  0  0  0  0  0  0  0  0  0  0  0
   15.6975    5.1117    6.6298 H   0  0  0  0  0  0  0  0  0  0  0  0
   16.1427    2.8870    7.4886 H   0  0  0  0  0  0  0  0  0  0  0  0
   12.8644    3.1248   -1.5073 H   0  0  0  0  0  0  0  0  0  0  0  0
   14.3590    3.4864   -3.3840 H   0  0  0  0  0  0  0  0  0  0  0  0
   14.4199    5.6517   -4.4761 H   0  0  0  0  0  0  0  0  0  0  0  0
    9.7826    5.3566   -2.6728 H   0  0  0  0  0  0  0  0  0  0  0  0
    7.2853    5.6361   -2.3258 H   0  0  0  0  0  0  0  0  0  0  0  0
    8.9539    4.4904    1.3057 H   0  0  0  0  0  0  0  0  0  0  0  0
   13.9493    4.7151    0.5714 H   0  0  0  0  0  0  0  0  0  0  0  0
   14.2102    3.9477    3.0006 H   0  0  0  0  0  0  0  0  0  0  0  0
    4.2337    4.4102    4.2629 H   0  0  0  0  0  0  0  0  0  0  0  0
    3.9288    4.8481    1.7579 H   0  0  0  0  0  0  0  0  0  0  0  0
    4.7134    7.2522    0.4505 H   0  0  0  0  0  0  0  0  0  0  0  0
    2.8743    7.8222   -1.0390 H   0  0  0  0  0  0  0  0  0  0  0  0
  1  2  1  0  0  0  0
  1 90  1  0  0  0  0
  1 91  1  0  0  0  0
  1 92  1  0  0  0  0
  2  3  1  0  0  0  0
  3  4  1  0  0  0  0
  3  8  2  0  0  0  0
  4  5  2  0  0  0  0
  4 93  1  0  0  0  0
  5  6  1  0  0  0  0
  5 94  1  0  0  0  0
  6  7  2  0  0  0  0
  6 95  1  0  0  0  0
  7  8  1  0  0  0  0
  7 96  1  0  0  0  0
  8  9  1  0  0  0  0
  9 10  1  0  0  0  0
  9 97  1  0  0  0  0
  9 98  1  0  0  0  0
 10 11  1  0  0  0  0
 10 12  1  0  0  0  0
 10 99  1  6  0  0  0
 11100  1  0  0  0  0
 11101  1  0  0  0  0
 11102  1  0  0  0  0
 12 13  1  0  0  0  0
 12 14  1  0  0  0  0
 12103  1  6  0  0  0
 13104  1  0  0  0  0
 13105  1  0  0  0  0
 13106  1  0  0  0  0
 14 15  2  0  0  0  0
 14 89  1  0  0  0  0
 15 16  1  0  0  0  0
 15107  1  0  0  0  0
 16 17  2  0  0  0  0
 16108  1  0  0  0  0
 17 18  1  0  0  0  0
 17 89  1  0  0  0  0
 18 19  2  0  0  0  0
 18 20  1  0  0  0  0
 20 21  1  0  0  0  0
 21 22  1  0  0  0  0
 21109  1  0  0  0  0
 21110  1  0  0  0  0
 22 23  1  0  0  0  0
 22111  1  0  0  0  0
 22112  1  0  0  0  0
 23 24  1  0  0  0  0
 24 25  2  0  0  0  0
 24 26  1  0  0  0  0
 26 27  1  0  0  0  0
 26 88  2  0  0  0  0
 27 28  2  0  0  0  0
 27113  1  0  0  0  0
 28 29  1  0  0  0  0
 28114  1  0  0  0  0
 29 30  1  0  0  0  0
 29 87  2  0  0  0  0
 30 31  1  0  0  0  0
 30 81  2  0  0  0  0
 31 32  2  0  0  0  0
 31 86  1  0  0  0  0
 32 33  1  0  0  0  0
 33 34  2  0  0  0  0
 33 85  1  0  0  0  0
 34 35  1  0  0  0  0
 34 46  1  0  0  0  0
 35 36  1  0  0  0  0
 35 44  2  0  0  0  0
 36 37  2  0  0  0  0
 36115  1  0  0  0  0
 37 38  1  0  0  0  0
 37116  1  0  0  0  0
 38 39  2  0  0  0  0
 38117  1  0  0  0  0
 39 40  1  0  0  0  0
 39 44  1  0  0  0  0
 40 41  2  0  0  0  0
 40 42  2  0  0  0  0
 40 43  1  0  0  0  0
 44 45  1  0  0  0  0
 46 47  2  0  0  0  0
 46 50  1  0  0  0  0
 47 48  1  0  0  0  0
 47118  1  0  0  0  0
 48 49  2  0  0  0  0
 48119  1  0  0  0  0
 49 50  1  0  0  0  0
 49 51  1  0  0  0  0
 50120  1  0  0  0  0
 51 52  1  0  0  0  0
 51 63  2  0  0  0  0
 52 53  1  0  0  0  0
 52 61  2  0  0  0  0
 53 54  2  0  0  0  0
 53121  1  0  0  0  0
 54 55  1  0  0  0  0
 54122  1  0  0  0  0
 55 56  2  0  0  0  0
 55123  1  0  0  0  0
 56 57  1  0  0  0  0
 56 61  1  0  0  0  0
 57 58  2  0  0  0  0
 57 59  2  0  0  0  0
 57 60  1  0  0  0  0
 61 62  1  0  0  0  0
 63 64  1  0  0  0  0
 63 84  1  0  0  0  0
 64 65  2  0  0  0  0
 65 66  1  0  0  0  0
 65 83  1  0  0  0  0
 66 67  1  0  0  0  0
 66 78  2  0  0  0  0
 67 68  1  0  0  0  0
 67 76  2  0  0  0  0
 68 69  2  0  0  0  0
 68124  1  0  0  0  0
 69 70  1  0  0  0  0
 69125  1  0  0  0  0
 70 71  2  0  0  0  0
 70126  1  0  0  0  0
 71 72  1  0  0  0  0
 71 76  1  0  0  0  0
 72 73  2  0  0  0  0
 72 74  2  0  0  0  0
 72 75  1  0  0  0  0
 76 77  1  0  0  0  0
 78 79  1  0  0  0  0
 78 82  1  0  0  0  0
 79 80  2  0  0  0  0
 79127  1  0  0  0  0
 80 81  1  0  0  0  0
 80128  1  0  0  0  0
 81 82  1  0  0  0  0
 82129  1  0  0  0  0
 83 84  2  0  0  0  0
 83130  1  0  0  0  0
 84131  1  0  0  0  0
 85 86  2  0  0  0  0
 85132  1  0  0  0  0
 86133  1  0  0  0  0
 87 88  1  0  0  0  0
 87134  1  0  0  0  0
 88135  1  0  0  0  0
M  CHG  4  10   1  43  -1  60  -1  75  -1
M  END
$$$$
