6_3_3562
 OpenBabel04152301373D

109118  0  0  0  0  0  0  0  0999 V2000
    2.4330    2.1568   -0.2247 O   0  0  0  0  0  0  0  0  0  0  0  0
    3.0947    1.1243   -0.1418 C   0  0  0  0  0  0  0  0  0  0  0  0
    3.0482    0.3981    1.0023 O   0  0  0  0  0  0  0  0  0  0  0  0
    4.0750   -0.4593    1.5257 C   0  0  0  0  0  0  0  0  0  0  0  0
    3.8342   -1.9525    1.2734 C   0  0  0  0  0  0  0  0  0  0  0  0
    3.2964   -2.2463   -0.0241 O   0  0  0  0  0  0  0  0  0  0  0  0
    1.9375   -2.2983   -0.0884 C   0  0  0  0  0  0  0  0  0  0  0  0
    1.1596   -2.1107    0.8354 O   0  0  0  0  0  0  0  0  0  0  0  0
    1.5124   -2.4661   -1.4988 C   0  0  0  0  0  0  0  0  0  0  0  0
    0.8285   -1.4172   -2.1014 C   0  0  0  0  0  0  0  0  0  0  0  0
    0.5140   -1.5286   -3.4516 C   0  0  0  0  0  0  0  0  0  0  0  0
    0.8211   -2.7042   -4.1245 C   0  0  0  0  0  0  0  0  0  0  0  0
    0.5087   -2.7490   -5.4513 O   0  0  0  0  0  0  0  0  0  0  0  0
    1.4122   -3.7451   -3.4083 C   0  0  0  0  0  0  0  0  0  0  0  0
    1.6117   -5.4488   -4.2233 Br  0  0  0  0  0  0  0  0  0  0  0  0
    1.8095   -3.6375   -2.1142 N   0  0  0  0  0  0  0  0  0  0  0  0
    3.7281    0.5899   -1.3869 C   0  0  0  0  0  0  0  0  0  0  0  0
    4.9145   -0.1448   -1.4474 C   0  0  0  0  0  0  0  0  0  0  0  0
    5.3847   -0.6527   -2.6581 C   0  0  0  0  0  0  0  0  0  0  0  0
    4.6996   -0.3911   -3.8437 C   0  0  0  0  0  0  0  0  0  0  0  0
    5.3434   -0.7281   -5.1258 C   0  0  0  0  0  0  0  0  0  0  0  0
    6.1657    0.3318   -5.7898 C   0  0  0  0  0  0  0  0  0  0  0  0
    6.8933    0.2456   -6.8678 N   0  0  0  0  0  0  0  0  0  0  0  0
    7.5182    1.4765   -6.9888 C   0  0  0  0  0  0  0  0  0  0  0  0
    8.4368    1.8592   -7.9002 C   0  0  0  0  0  0  0  0  0  0  0  0
    9.0403    3.2182   -7.7263 C   0  0  0  0  0  0  0  0  0  0  0  0
   10.0622    3.3969   -6.7723 C   0  0  0  0  0  0  0  0  0  0  0  0
   10.6394    4.6504   -6.5840 C   0  0  0  0  0  0  0  0  0  0  0  0
   10.2156    5.7227   -7.3651 C   0  0  0  0  0  0  0  0  0  0  0  0
    9.2049    5.5472   -8.3268 C   0  0  0  0  0  0  0  0  0  0  0  0
    8.7504    6.9881   -9.2946 S   0  0  0  0  0  0  0  0  0  0  0  0
    8.2693    7.9004   -8.2571 O   0  0  0  0  0  0  0  0  0  0  0  0
   10.0293    7.3646   -9.8949 O   0  0  0  0  0  0  0  0  0  0  0  0
    7.7346    6.5392  -10.2364 O   0  5  0  0  0  0  0  0  0  0  0  0
    8.6083    4.3062   -8.5031 C   0  0  0  0  0  0  0  0  0  0  0  0
    7.6162    4.1075   -9.3819 F   0  0  0  0  0  0  0  0  0  0  0  0
    8.8779    1.0330   -8.9832 C   0  0  0  0  0  0  0  0  0  0  0  0
    9.8086    1.3244   -9.9610 C   0  0  0  0  0  0  0  0  0  0  0  0
    9.8708    0.2327  -10.8319 C   0  0  0  0  0  0  0  0  0  0  0  0
    8.9914   -0.7424  -10.3837 C   0  0  0  0  0  0  0  0  0  0  0  0
    8.3948   -0.2396   -9.2445 N   0  0  0  0  0  0  0  0  0  0  0  0
    8.7072   -2.0266  -10.9714 C   0  0  0  0  0  0  0  0  0  0  0  0
    9.4413   -2.3574  -12.2372 C   0  0  0  0  0  0  0  0  0  0  0  0
    8.7993   -2.1830  -13.4762 C   0  0  0  0  0  0  0  0  0  0  0  0
    9.5156   -2.3255  -14.6628 C   0  0  0  0  0  0  0  0  0  0  0  0
   10.8798   -2.6092  -14.6142 C   0  0  0  0  0  0  0  0  0  0  0  0
   11.5268   -2.7829  -13.3792 C   0  0  0  0  0  0  0  0  0  0  0  0
   13.3021   -3.0503  -13.4139 S   0  0  0  0  0  0  0  0  0  0  0  0
   13.3896   -4.3858  -14.0025 O   0  0  0  0  0  0  0  0  0  0  0  0
   13.7596   -1.9671  -14.2841 O   0  0  0  0  0  0  0  0  0  0  0  0
   13.7537   -2.9516  -12.0323 O   0  5  0  0  0  0  0  0  0  0  0  0
   10.8112   -2.6818  -12.1947 C   0  0  0  0  0  0  0  0  0  0  0  0
   11.3899   -2.8508  -10.9968 F   0  0  0  0  0  0  0  0  0  0  0  0
    7.8336   -2.9398  -10.4841 C   0  0  0  0  0  0  0  0  0  0  0  0
    7.0792   -2.8851   -9.3209 N   0  0  0  0  0  0  0  0  0  0  0  0
    6.4184   -4.0162   -9.2667 C   0  0  0  0  0  0  0  0  0  0  0  0
    5.5363   -4.5281   -8.1647 C   0  0  0  0  0  0  0  0  0  0  0  0
    4.8951   -5.8682   -8.2361 C   0  0  0  0  0  0  0  0  0  0  0  0
    5.6613   -7.0283   -8.0270 C   0  0  0  0  0  0  0  0  0  0  0  0
    5.0609   -8.2888   -8.0612 C   0  0  0  0  0  0  0  0  0  0  0  0
    3.6893   -8.3970   -8.2819 C   0  0  0  0  0  0  0  0  0  0  0  0
    2.9145   -7.2438   -8.4786 C   0  0  0  0  0  0  0  0  0  0  0  0
    1.1446   -7.4724   -8.6847 S   0  0  0  0  0  0  0  0  0  0  0  0
    1.0798   -8.1467   -9.9790 O   0  0  0  0  0  0  0  0  0  0  0  0
    0.8133   -8.3114   -7.5336 O   0  0  0  0  0  0  0  0  0  0  0  0
    0.5694   -6.1344   -8.6399 O   0  5  0  0  0  0  0  0  0  0  0  0
    3.5101   -5.9877   -8.4680 C   0  0  0  0  0  0  0  0  0  0  0  0
    2.8019   -4.8658   -8.6609 F   0  0  0  0  0  0  0  0  0  0  0  0
    5.3549   -3.7563   -7.0763 C   0  0  0  0  0  0  0  0  0  0  0  0
    4.6399   -4.1484   -5.8685 C   0  0  0  0  0  0  0  0  0  0  0  0
    4.5844   -3.0995   -5.0294 C   0  0  0  0  0  0  0  0  0  0  0  0
    5.2641   -1.9642   -5.6468 C   0  0  0  0  0  0  0  0  0  0  0  0
    5.7559   -2.4674   -6.8232 N   0  0  0  0  0  0  0  0  0  0  0  0
    6.6328   -4.8965  -10.4233 C   0  0  0  0  0  0  0  0  0  0  0  0
    7.5313   -4.2079  -11.1184 C   0  0  0  0  0  0  0  0  0  0  0  0
    7.0531    2.3112   -5.9056 C   0  0  0  0  0  0  0  0  0  0  0  0
    6.2164    1.6466   -5.1245 C   0  0  0  0  0  0  0  0  0  0  0  0
    3.5277    0.3696   -3.8115 C   0  0  0  0  0  0  0  0  0  0  0  0
    3.0614    0.8725   -2.5941 C   0  0  0  0  0  0  0  0  0  0  0  0
    4.1367   -0.3030    2.5824 H   0  0  0  0  0  0  0  0  0  0  0  0
    4.9801   -0.2028    1.0158 H   0  0  0  0  0  0  0  0  0  0  0  0
    3.1478   -2.3119    2.0113 H   0  0  0  0  0  0  0  0  0  0  0  0
    4.7884   -2.4335    1.3290 H   0  0  0  0  0  0  0  0  0  0  0  0
    0.5614   -0.5789   -1.5621 H   0  0  0  0  0  0  0  0  0  0  0  0
    0.0578   -0.7470   -3.9476 H   0  0  0  0  0  0  0  0  0  0  0  0
    0.1118   -2.0076   -5.8645 H   0  0  0  0  0  0  0  0  0  0  0  0
    5.4515   -0.3144   -0.5826 H   0  0  0  0  0  0  0  0  0  0  0  0
    6.2435   -1.2247   -2.6764 H   0  0  0  0  0  0  0  0  0  0  0  0
   10.3848    2.5940   -6.2098 H   0  0  0  0  0  0  0  0  0  0  0  0
   11.3745    4.7834   -5.8720 H   0  0  0  0  0  0  0  0  0  0  0  0
   10.6460    6.6519   -7.2373 H   0  0  0  0  0  0  0  0  0  0  0  0
   10.3601    2.1935  -10.0355 H   0  0  0  0  0  0  0  0  0  0  0  0
   10.4708    0.1636  -11.6687 H   0  0  0  0  0  0  0  0  0  0  0  0
    7.7263   -0.7141   -8.6994 H   0  0  0  0  0  0  0  0  0  0  0  0
    7.7947   -1.9488  -13.5066 H   0  0  0  0  0  0  0  0  0  0  0  0
    9.0392   -2.2217  -15.5723 H   0  0  0  0  0  0  0  0  0  0  0  0
   11.4178   -2.6921  -15.4910 H   0  0  0  0  0  0  0  0  0  0  0  0
    6.6743   -6.9479   -7.8470 H   0  0  0  0  0  0  0  0  0  0  0  0
    5.6314   -9.1376   -7.9234 H   0  0  0  0  0  0  0  0  0  0  0  0
    3.2425   -9.3271   -8.3007 H   0  0  0  0  0  0  0  0  0  0  0  0
    4.2400   -5.0822   -5.6864 H   0  0  0  0  0  0  0  0  0  0  0  0
    4.1348   -3.0971   -4.1005 H   0  0  0  0  0  0  0  0  0  0  0  0
    6.3397   -1.9548   -7.4278 H   0  0  0  0  0  0  0  0  0  0  0  0
    6.2000   -5.8083  -10.6387 H   0  0  0  0  0  0  0  0  0  0  0  0
    7.9599   -4.5343  -11.9986 H   0  0  0  0  0  0  0  0  0  0  0  0
    7.3351    3.2932   -5.7603 H   0  0  0  0  0  0  0  0  0  0  0  0
    5.7277    1.9651   -4.2732 H   0  0  0  0  0  0  0  0  0  0  0  0
    3.0089    0.5591   -4.6832 H   0  0  0  0  0  0  0  0  0  0  0  0
    2.2138    1.4611   -2.5797 H   0  0  0  0  0  0  0  0  0  0  0  0
  1  2  2  0  0  0  0
  2  3  1  0  0  0  0
  2 17  1  0  0  0  0
  3  4  1  0  0  0  0
  4  5  1  0  0  0  0
  4 80  1  0  0  0  0
  4 81  1  0  0  0  0
  5  6  1  0  0  0  0
  5 82  1  0  0  0  0
  5 83  1  0  0  0  0
  6  7  1  0  0  0  0
  7  8  2  0  0  0  0
  7  9  1  0  0  0  0
  9 10  1  0  0  0  0
  9 16  2  0  0  0  0
 10 11  2  0  0  0  0
 10 84  1  0  0  0  0
 11 12  1  0  0  0  0
 11 85  1  0  0  0  0
 12 13  1  0  0  0  0
 12 14  2  0  0  0  0
 13 86  1  0  0  0  0
 14 15  1  0  0  0  0
 14 16  1  0  0  0  0
 17 18  1  0  0  0  0
 17 79  2  0  0  0  0
 18 19  2  0  0  0  0
 18 87  1  0  0  0  0
 19 20  1  0  0  0  0
 19 88  1  0  0  0  0
 20 21  1  0  0  0  0
 20 78  2  0  0  0  0
 21 22  1  0  0  0  0
 21 72  2  0  0  0  0
 22 23  2  0  0  0  0
 22 77  1  0  0  0  0
 23 24  1  0  0  0  0
 24 25  2  0  0  0  0
 24 76  1  0  0  0  0
 25 26  1  0  0  0  0
 25 37  1  0  0  0  0
 26 27  1  0  0  0  0
 26 35  2  0  0  0  0
 27 28  2  0  0  0  0
 27 89  1  0  0  0  0
 28 29  1  0  0  0  0
 28 90  1  0  0  0  0
 29 30  2  0  0  0  0
 29 91  1  0  0  0  0
 30 31  1  0  0  0  0
 30 35  1  0  0  0  0
 31 32  2  0  0  0  0
 31 33  2  0  0  0  0
 31 34  1  0  0  0  0
 35 36  1  0  0  0  0
 37 38  2  0  0  0  0
 37 41  1  0  0  0  0
 38 39  1  0  0  0  0
 38 92  1  0  0  0  0
 39 40  2  0  0  0  0
 39 93  1  0  0  0  0
 40 41  1  0  0  0  0
 40 42  1  0  0  0  0
 41 94  1  0  0  0  0
 42 43  1  0  0  0  0
 42 54  2  0  0  0  0
 43 44  1  0  0  0  0
 43 52  2  0  0  0  0
 44 45  2  0  0  0  0
 44 95  1  0  0  0  0
 45 46  1  0  0  0  0
 45 96  1  0  0  0  0
 46 47  2  0  0  0  0
 46 97  1  0  0  0  0
 47 48  1  0  0  0  0
 47 52  1  0  0  0  0
 48 49  2  0  0  0  0
 48 50  2  0  0  0  0
 48 51  1  0  0  0  0
 52 53  1  0  0  0  0
 54 55  1  0  0  0  0
 54 75  1  0  0  0  0
 55 56  2  0  0  0  0
 56 57  1  0  0  0  0
 56 74  1  0  0  0  0
 57 58  1  0  0  0  0
 57 69  2  0  0  0  0
 58 59  1  0  0  0  0
 58 67  2  0  0  0  0
 59 60  2  0  0  0  0
 59 98  1  0  0  0  0
 60 61  1  0  0  0  0
 60 99  1  0  0  0  0
 61 62  2  0  0  0  0
 61100  1  0  0  0  0
 62 63  1  0  0  0  0
 62 67  1  0  0  0  0
 63 64  2  0  0  0  0
 63 65  2  0  0  0  0
 63 66  1  0  0  0  0
 67 68  1  0  0  0  0
 69 70  1  0  0  0  0
 69 73  1  0  0  0  0
 70 71  2  0  0  0  0
 70101  1  0  0  0  0
 71 72  1  0  0  0  0
 71102  1  0  0  0  0
 72 73  1  0  0  0  0
 73103  1  0  0  0  0
 74 75  2  0  0  0  0
 74104  1  0  0  0  0
 75105  1  0  0  0  0
 76 77  2  0  0  0  0
 76106  1  0  0  0  0
 77107  1  0  0  0  0
 78 79  1  0  0  0  0
 78108  1  0  0  0  0
 79109  1  0  0  0  0
M  CHG  3  34  -1  51  -1  66  -1
M  END
$$$$
