6_3_735
 OpenBabel04152301373D

139150  0  0  1  0  0  0  0  0999 V2000
    6.8379    3.3770    1.3898 O   0  0  0  0  0  0  0  0  0  0  0  0
    6.1950    2.4666    0.8703 C   0  0  0  0  0  0  0  0  0  0  0  0
    6.7899    1.5796   -0.2258 C   0  0  0  0  0  0  0  0  0  0  0  0
    7.7281    0.5230    0.1744 N   0  0  0  0  0  0  0  0  0  0  0  0
    7.7197   -0.7878   -0.3356 C   0  0  0  0  0  0  0  0  0  0  0  0
    8.6680   -1.5576   -0.1502 O   0  0  0  0  0  0  0  0  0  0  0  0
    6.4386   -1.3242   -1.0514 C   0  0  1  0  0  0  0  0  0  0  0  0
    6.8020   -2.1312   -2.3060 C   0  0  0  0  0  0  0  0  0  0  0  0
    5.5703   -2.8184   -2.9101 C   0  0  0  0  0  0  0  0  0  0  0  0
    4.7712   -3.6110   -1.8581 C   0  0  1  0  0  0  0  0  0  0  0  0
    5.5156   -4.8928   -1.4330 C   0  0  0  0  0  0  0  0  0  0  0  0
    4.9547   -5.5936   -0.1920 C   0  0  0  0  0  0  0  0  0  0  0  0
    4.4732   -4.6697    0.9232 C   0  0  0  0  0  0  0  0  0  0  0  0
    3.6740   -3.4849    0.3953 C   0  0  0  0  0  0  0  0  0  0  0  0
    4.4536   -2.6993   -0.6628 C   0  0  1  0  0  0  0  0  0  0  0  0
    5.6923   -2.1691   -0.0953 N   0  3  0  0  0  0  0  0  0  0  0  0
    8.8991    1.0279    0.8765 C   0  0  0  0  0  0  0  0  0  0  0  0
    8.8280    1.2206    2.3741 C   0  0  0  0  0  0  0  0  0  0  0  0
    9.8000    0.2467    1.7924 C   0  0  0  0  0  0  0  0  0  0  0  0
    4.9086    2.2509    1.2524 O   0  0  0  0  0  0  0  0  0  0  0  0
    4.2023    1.0129    1.0423 C   0  0  0  0  0  0  0  0  0  0  0  0
    3.1140    1.1434   -0.0257 C   0  0  0  0  0  0  0  0  0  0  0  0
    3.7077    1.3854   -1.3134 O   0  0  0  0  0  0  0  0  0  0  0  0
    3.7841    2.6895   -1.6845 C   0  0  0  0  0  0  0  0  0  0  0  0
    3.2542    3.6322   -1.1218 O   0  0  0  0  0  0  0  0  0  0  0  0
    4.8107    2.8358   -2.7456 C   0  0  0  0  0  0  0  0  0  0  0  0
    5.6159    3.9830   -2.7156 C   0  0  0  0  0  0  0  0  0  0  0  0
    6.6141    4.1675   -3.6746 C   0  0  0  0  0  0  0  0  0  0  0  0
    6.8055    3.2123   -4.6805 C   0  0  0  0  0  0  0  0  0  0  0  0
    7.6777    3.5198   -5.8406 C   0  0  0  0  0  0  0  0  0  0  0  0
    7.0411    4.0601   -7.0915 C   0  0  0  0  0  0  0  0  0  0  0  0
    7.5944    4.3786   -8.2316 N   0  0  0  0  0  0  0  0  0  0  0  0
    6.5534    4.7915   -9.0523 C   0  0  0  0  0  0  0  0  0  0  0  0
    6.6035    5.2475  -10.3252 C   0  0  0  0  0  0  0  0  0  0  0  0
    5.3036    5.6564  -10.9583 C   0  0  0  0  0  0  0  0  0  0  0  0
    4.6913    6.8646  -10.5687 C   0  0  0  0  0  0  0  0  0  0  0  0
    3.4802    7.2587  -11.1345 C   0  0  0  0  0  0  0  0  0  0  0  0
    2.8972    6.4719  -12.1247 C   0  0  0  0  0  0  0  0  0  0  0  0
    3.5143    5.2798  -12.5376 C   0  0  0  0  0  0  0  0  0  0  0  0
    2.7333    4.3567  -13.8649 S   0  0  0  0  0  0  0  0  0  0  0  0
    1.6890    3.6306  -13.1448 O   0  0  0  0  0  0  0  0  0  0  0  0
    2.2416    5.4211  -14.7411 O   0  0  0  0  0  0  0  0  0  0  0  0
    3.7885    3.5392  -14.4473 O   0  5  0  0  0  0  0  0  0  0  0  0
    4.7020    4.8610  -11.9507 C   0  0  0  0  0  0  0  0  0  0  0  0
    5.2827    3.6989  -12.2823 F   0  0  0  0  0  0  0  0  0  0  0  0
    7.8092    5.3863  -11.0919 C   0  0  0  0  0  0  0  0  0  0  0  0
    7.9622    5.9096  -12.3633 C   0  0  0  0  0  0  0  0  0  0  0  0
    9.3091    5.7943  -12.7226 C   0  0  0  0  0  0  0  0  0  0  0  0
    9.9962    5.2188  -11.6658 C   0  0  0  0  0  0  0  0  0  0  0  0
    9.0643    4.9791  -10.6713 N   0  0  0  0  0  0  0  0  0  0  0  0
   11.3953    4.8854  -11.5790 C   0  0  0  0  0  0  0  0  0  0  0  0
   12.2452    5.1665  -12.7918 C   0  0  0  0  0  0  0  0  0  0  0  0
   12.6261    4.1072  -13.6381 C   0  0  0  0  0  0  0  0  0  0  0  0
   13.3153    4.3604  -14.8245 C   0  0  0  0  0  0  0  0  0  0  0  0
   13.5912    5.6750  -15.1945 C   0  0  0  0  0  0  0  0  0  0  0  0
   13.2044    6.7397  -14.3648 C   0  0  0  0  0  0  0  0  0  0  0  0
   13.5127    8.4036  -14.9709 S   0  0  0  0  0  0  0  0  0  0  0  0
   14.9626    8.5126  -14.8188 O   0  0  0  0  0  0  0  0  0  0  0  0
   13.0493    8.3211  -16.3564 O   0  0  0  0  0  0  0  0  0  0  0  0
   12.7279    9.2917  -14.1238 O   0  5  0  0  0  0  0  0  0  0  0  0
   12.5565    6.4915  -13.1598 C   0  0  0  0  0  0  0  0  0  0  0  0
   12.1990    7.4847  -12.3327 F   0  0  0  0  0  0  0  0  0  0  0  0
   11.9809    4.3123  -10.4984 C   0  0  0  0  0  0  0  0  0  0  0  0
   11.4129    3.9727   -9.2733 N   0  0  0  0  0  0  0  0  0  0  0  0
   12.3731    3.4250   -8.5683 C   0  0  0  0  0  0  0  0  0  0  0  0
   12.3403    2.9255   -7.1453 C   0  0  0  0  0  0  0  0  0  0  0  0
   13.5632    2.3554   -6.5138 C   0  0  0  0  0  0  0  0  0  0  0  0
   14.6426    3.2007   -6.1942 C   0  0  0  0  0  0  0  0  0  0  0  0
   15.7942    2.6859   -5.5973 C   0  0  0  0  0  0  0  0  0  0  0  0
   15.8573    1.3326   -5.2749 C   0  0  0  0  0  0  0  0  0  0  0  0
   14.7771    0.4859   -5.5683 C   0  0  0  0  0  0  0  0  0  0  0  0
   14.9029   -1.2179   -5.0141 S   0  0  0  0  0  0  0  0  0  0  0  0
   15.9547   -1.7375   -5.8848 O   0  0  0  0  0  0  0  0  0  0  0  0
   15.2901   -1.0476   -3.6136 O   0  0  0  0  0  0  0  0  0  0  0  0
   13.5804   -1.7947   -5.2114 O   0  5  0  0  0  0  0  0  0  0  0  0
   13.6477    0.9833   -6.2068 C   0  0  0  0  0  0  0  0  0  0  0  0
   12.6143    0.1958   -6.5367 F   0  0  0  0  0  0  0  0  0  0  0  0
   11.2013    3.0159   -6.4277 C   0  0  0  0  0  0  0  0  0  0  0  0
   11.0338    2.6009   -5.0341 C   0  0  0  0  0  0  0  0  0  0  0  0
    9.7473    2.7588   -4.6741 C   0  0  0  0  0  0  0  0  0  0  0  0
    9.0039    3.2975   -5.8098 C   0  0  0  0  0  0  0  0  0  0  0  0
    9.9543    3.4682   -6.7876 N   0  0  0  0  0  0  0  0  0  0  0  0
   13.6553    3.3253   -9.2846 C   0  0  0  0  0  0  0  0  0  0  0  0
   13.3731    3.9210  -10.4368 C   0  0  0  0  0  0  0  0  0  0  0  0
    5.3332    4.6712   -8.2842 C   0  0  0  0  0  0  0  0  0  0  0  0
    5.5828    4.2596   -7.0506 C   0  0  0  0  0  0  0  0  0  0  0  0
    6.0326    2.0379   -4.6752 C   0  0  0  0  0  0  0  0  0  0  0  0
    5.0333    1.8503   -3.7142 C   0  0  0  0  0  0  0  0  0  0  0  0
    7.3062    2.2213   -0.9088 H   0  0  0  0  0  0  0  0  0  0  0  0
    5.9499    1.0524   -0.6275 H   0  0  0  0  0  0  0  0  0  0  0  0
    5.8347   -0.4990   -1.3664 H   0  0  0  0  0  0  0  0  0  0  0  0
    7.5221   -2.8775   -2.0426 H   0  0  0  0  0  0  0  0  0  0  0  0
    7.2008   -1.4567   -3.0347 H   0  0  0  0  0  0  0  0  0  0  0  0
    5.8927   -3.4915   -3.6769 H   0  0  0  0  0  0  0  0  0  0  0  0
    4.9298   -2.0572   -3.3040 H   0  0  0  0  0  0  0  0  0  0  0  0
    3.8464   -3.9328   -2.2895 H   0  0  0  0  0  0  0  0  0  0  0  0
    6.5343   -4.6330   -1.2340 H   0  0  0  0  0  0  0  0  0  0  0  0
    5.3999   -5.5843   -2.2413 H   0  0  0  0  0  0  0  0  0  0  0  0
    5.7238   -6.2205    0.2084 H   0  0  0  0  0  0  0  0  0  0  0  0
    4.0899   -6.1297   -0.5231 H   0  0  0  0  0  0  0  0  0  0  0  0
    5.3253   -4.2996    1.4540 H   0  0  0  0  0  0  0  0  0  0  0  0
    3.8288   -5.2382    1.5608 H   0  0  0  0  0  0  0  0  0  0  0  0
    3.4429   -2.8320    1.2109 H   0  0  0  0  0  0  0  0  0  0  0  0
    2.7822   -3.8618   -0.0603 H   0  0  0  0  0  0  0  0  0  0  0  0
    3.8526   -1.8788   -0.9951 H   0  0  0  0  0  0  0  0  0  0  0  0
    5.4622   -1.6089    0.7255 H   0  0  0  0  0  0  0  0  0  0  0  0
    6.2865   -2.9624    0.1457 H   0  0  0  0  0  0  0  0  0  0  0  0
    9.0971    1.6078   -0.0006 H   0  0  0  0  0  0  0  0  0  0  0  0
    7.9778    0.8670    2.9191 H   0  0  0  0  0  0  0  0  0  0  0  0
    8.9013    2.0605    3.0330 H   0  0  0  0  0  0  0  0  0  0  0  0
   10.8484    0.4593    1.8183 H   0  0  0  0  0  0  0  0  0  0  0  0
   10.0049   -0.7930    1.9408 H   0  0  0  0  0  0  0  0  0  0  0  0
    3.7472    0.7150    1.9637 H   0  0  0  0  0  0  0  0  0  0  0  0
    4.9092    0.2843    0.7042 H   0  0  0  0  0  0  0  0  0  0  0  0
    2.4689    1.9594    0.2250 H   0  0  0  0  0  0  0  0  0  0  0  0
    2.5531    0.2330   -0.0655 H   0  0  0  0  0  0  0  0  0  0  0  0
    5.4704    4.6940   -1.9819 H   0  0  0  0  0  0  0  0  0  0  0  0
    7.2112    5.0086   -3.6420 H   0  0  0  0  0  0  0  0  0  0  0  0
    5.1433    7.4621   -9.8589 H   0  0  0  0  0  0  0  0  0  0  0  0
    3.0187    8.1273  -10.8220 H   0  0  0  0  0  0  0  0  0  0  0  0
    2.0076    6.7662  -12.5571 H   0  0  0  0  0  0  0  0  0  0  0  0
    7.2127    6.3147  -12.9456 H   0  0  0  0  0  0  0  0  0  0  0  0
    9.7212    6.0880  -13.6220 H   0  0  0  0  0  0  0  0  0  0  0  0
    9.2640    4.5784   -9.7945 H   0  0  0  0  0  0  0  0  0  0  0  0
   12.3936    3.1358  -13.3786 H   0  0  0  0  0  0  0  0  0  0  0  0
   13.6192    3.5780  -15.4249 H   0  0  0  0  0  0  0  0  0  0  0  0
   14.0818    5.8670  -16.0819 H   0  0  0  0  0  0  0  0  0  0  0  0
   14.5818    4.2095   -6.4031 H   0  0  0  0  0  0  0  0  0  0  0  0
   16.5950    3.3049   -5.3958 H   0  0  0  0  0  0  0  0  0  0  0  0
   16.7009    0.9512   -4.8189 H   0  0  0  0  0  0  0  0  0  0  0  0
   11.7849    2.2432   -4.4234 H   0  0  0  0  0  0  0  0  0  0  0  0
    9.3509    2.5359   -3.7477 H   0  0  0  0  0  0  0  0  0  0  0  0
    9.7604    3.8757   -7.6626 H   0  0  0  0  0  0  0  0  0  0  0  0
   14.5431    2.9021   -8.9721 H   0  0  0  0  0  0  0  0  0  0  0  0
   14.0580    4.0841  -11.1914 H   0  0  0  0  0  0  0  0  0  0  0  0
    4.3909    4.8791   -8.6501 H   0  0  0  0  0  0  0  0  0  0  0  0
    4.9274    4.1163   -6.2665 H   0  0  0  0  0  0  0  0  0  0  0  0
    6.2036    1.3089   -5.3854 H   0  0  0  0  0  0  0  0  0  0  0  0
    4.4634    0.9899   -3.7195 H   0  0  0  0  0  0  0  0  0  0  0  0
  1  2  2  0  0  0  0
  2  3  1  0  0  0  0
  2 20  1  0  0  0  0
  3  4  1  0  0  0  0
  3 89  1  0  0  0  0
  3 90  1  0  0  0  0
  4  5  1  0  0  0  0
  4 17  1  0  0  0  0
  5  6  2  0  0  0  0
  7  8  1  0  0  0  0
  7 16  1  0  0  0  0
  7  5  1  0  0  0  0
  7 91  1  6  0  0  0
  8  9  1  0  0  0  0
  8 92  1  0  0  0  0
  8 93  1  0  0  0  0
  9 10  1  0  0  0  0
  9 94  1  0  0  0  0
  9 95  1  0  0  0  0
 10 11  1  0  0  0  0
 10 15  1  0  0  0  0
 10 96  1  6  0  0  0
 11 12  1  0  0  0  0
 11 97  1  0  0  0  0
 11 98  1  0  0  0  0
 12 13  1  0  0  0  0
 12 99  1  0  0  0  0
 12100  1  0  0  0  0
 13 14  1  0  0  0  0
 13101  1  0  0  0  0
 13102  1  0  0  0  0
 14 15  1  0  0  0  0
 14103  1  0  0  0  0
 14104  1  0  0  0  0
 15 16  1  0  0  0  0
 15105  1  6  0  0  0
 16106  1  0  0  0  0
 16107  1  0  0  0  0
 17 18  1  0  0  0  0
 17 19  1  0  0  0  0
 17108  1  0  0  0  0
 18 19  1  0  0  0  0
 18109  1  0  0  0  0
 18110  1  0  0  0  0
 19111  1  0  0  0  0
 19112  1  0  0  0  0
 20 21  1  0  0  0  0
 21 22  1  0  0  0  0
 21113  1  0  0  0  0
 21114  1  0  0  0  0
 22 23  1  0  0  0  0
 22115  1  0  0  0  0
 22116  1  0  0  0  0
 23 24  1  0  0  0  0
 24 25  2  0  0  0  0
 24 26  1  0  0  0  0
 26 27  1  0  0  0  0
 26 88  2  0  0  0  0
 27 28  2  0  0  0  0
 27117  1  0  0  0  0
 28 29  1  0  0  0  0
 28118  1  0  0  0  0
 29 30  1  0  0  0  0
 29 87  2  0  0  0  0
 30 31  1  0  0  0  0
 30 81  2  0  0  0  0
 31 32  2  0  0  0  0
 31 86  1  0  0  0  0
 32 33  1  0  0  0  0
 33 34  2  0  0  0  0
 33 85  1  0  0  0  0
 34 35  1  0  0  0  0
 34 46  1  0  0  0  0
 35 36  1  0  0  0  0
 35 44  2  0  0  0  0
 36 37  2  0  0  0  0
 36119  1  0  0  0  0
 37 38  1  0  0  0  0
 37120  1  0  0  0  0
 38 39  2  0  0  0  0
 38121  1  0  0  0  0
 39 40  1  0  0  0  0
 39 44  1  0  0  0  0
 40 41  2  0  0  0  0
 40 42  2  0  0  0  0
 40 43  1  0  0  0  0
 44 45  1  0  0  0  0
 46 47  2  0  0  0  0
 46 50  1  0  0  0  0
 47 48  1  0  0  0  0
 47122  1  0  0  0  0
 48 49  2  0  0  0  0
 48123  1  0  0  0  0
 49 50  1  0  0  0  0
 49 51  1  0  0  0  0
 50124  1  0  0  0  0
 51 52  1  0  0  0  0
 51 63  2  0  0  0  0
 52 53  1  0  0  0  0
 52 61  2  0  0  0  0
 53 54  2  0  0  0  0
 53125  1  0  0  0  0
 54 55  1  0  0  0  0
 54126  1  0  0  0  0
 55 56  2  0  0  0  0
 55127  1  0  0  0  0
 56 57  1  0  0  0  0
 56 61  1  0  0  0  0
 57 58  2  0  0  0  0
 57 59  2  0  0  0  0
 57 60  1  0  0  0  0
 61 62  1  0  0  0  0
 63 64  1  0  0  0  0
 63 84  1  0  0  0  0
 64 65  2  0  0  0  0
 65 66  1  0  0  0  0
 65 83  1  0  0  0  0
 66 67  1  0  0  0  0
 66 78  2  0  0  0  0
 67 68  1  0  0  0  0
 67 76  2  0  0  0  0
 68 69  2  0  0  0  0
 68128  1  0  0  0  0
 69 70  1  0  0  0  0
 69129  1  0  0  0  0
 70 71  2  0  0  0  0
 70130  1  0  0  0  0
 71 72  1  0  0  0  0
 71 76  1  0  0  0  0
 72 73  2  0  0  0  0
 72 74  2  0  0  0  0
 72 75  1  0  0  0  0
 76 77  1  0  0  0  0
 78 79  1  0  0  0  0
 78 82  1  0  0  0  0
 79 80  2  0  0  0  0
 79131  1  0  0  0  0
 80 81  1  0  0  0  0
 80132  1  0  0  0  0
 81 82  1  0  0  0  0
 82133  1  0  0  0  0
 83 84  2  0  0  0  0
 83134  1  0  0  0  0
 84135  1  0  0  0  0
 85 86  2  0  0  0  0
 85136  1  0  0  0  0
 86137  1  0  0  0  0
 87 88  1  0  0  0  0
 87138  1  0  0  0  0
 88139  1  0  0  0  0
M  CHG  4  16   1  43  -1  60  -1  75  -1
M  END
$$$$
