6_4_7094
 OpenBabel04152301373D

132142  0  0  0  0  0  0  0  0999 V2000
    0.9167    0.1851   -0.2942 O   0  0  0  0  0  0  0  0  0  0  0  0
    2.1165    0.0352   -0.0895 C   0  0  0  0  0  0  0  0  0  0  0  0
    3.0055    0.6975   -0.9066 N   0  0  0  0  0  0  0  0  0  0  0  0
    4.4111    0.6594   -0.9534 C   0  0  0  0  0  0  0  0  0  0  0  0
    5.0702    1.7635   -1.5040 C   0  0  0  0  0  0  0  0  0  0  0  0
    6.4636    1.8489   -1.4618 C   0  0  0  0  0  0  0  0  0  0  0  0
    7.2045    0.8305   -0.8664 C   0  0  0  0  0  0  0  0  0  0  0  0
    6.5560   -0.3022   -0.3646 C   0  0  0  0  0  0  0  0  0  0  0  0
    7.3860   -1.3780    0.2278 C   0  0  0  0  0  0  0  0  0  0  0  0
    8.4843   -1.1712    0.7206 O   0  0  0  0  0  0  0  0  0  0  0  0
    6.8059   -2.5789   -0.0036 O   0  0  0  0  0  0  0  0  0  0  0  0
    7.6517   -3.7216    0.1918 C   0  0  0  0  0  0  0  0  0  0  0  0
    8.0621   -4.3482   -1.1454 C   0  0  0  0  0  0  0  0  0  0  0  0
    8.8253   -3.5380   -2.0403 O   0  0  0  0  0  0  0  0  0  0  0  0
    8.1250   -2.5616   -2.8104 C   0  0  0  0  0  0  0  0  0  0  0  0
    7.3126   -3.0391   -4.0201 C   0  0  0  0  0  0  0  0  0  0  0  0
    6.2328   -3.9134   -3.6583 O   0  0  0  0  0  0  0  0  0  0  0  0
    6.4534   -5.2198   -3.9462 C   0  0  0  0  0  0  0  0  0  0  0  0
    7.4283   -5.6946   -4.5050 O   0  0  0  0  0  0  0  0  0  0  0  0
    5.4153   -6.0559   -3.3164 C   0  0  0  0  0  0  0  0  0  0  0  0
    5.8439   -7.1021   -2.4893 C   0  0  0  0  0  0  0  0  0  0  0  0
    4.9199   -8.0097   -1.9793 C   0  0  0  0  0  0  0  0  0  0  0  0
    3.5642   -7.8851   -2.3087 C   0  0  0  0  0  0  0  0  0  0  0  0
    2.6238   -8.9790   -1.9651 C   0  0  0  0  0  0  0  0  0  0  0  0
    2.1690   -9.9220   -3.0472 C   0  0  0  0  0  0  0  0  0  0  0  0
    1.3196  -10.9135   -2.9782 N   0  0  0  0  0  0  0  0  0  0  0  0
    1.2341  -11.4311   -4.2653 C   0  0  0  0  0  0  0  0  0  0  0  0
    0.5061  -12.4822   -4.7118 C   0  0  0  0  0  0  0  0  0  0  0  0
    0.6177  -12.8454   -6.1697 C   0  0  0  0  0  0  0  0  0  0  0  0
    1.8015  -13.4373   -6.6550 C   0  0  0  0  0  0  0  0  0  0  0  0
    1.9090  -13.8160   -7.9926 C   0  0  0  0  0  0  0  0  0  0  0  0
    0.8178  -13.6529   -8.8418 C   0  0  0  0  0  0  0  0  0  0  0  0
   -0.3760  -13.0894   -8.3621 C   0  0  0  0  0  0  0  0  0  0  0  0
   -1.7506  -13.0000   -9.5146 S   0  0  0  0  0  0  0  0  0  0  0  0
   -1.2737  -11.9957  -10.4647 O   0  0  0  0  0  0  0  0  0  0  0  0
   -1.7968  -14.3640  -10.0417 O   0  0  0  0  0  0  0  0  0  0  0  0
   -2.9126  -12.6099   -8.7288 O   0  5  0  0  0  0  0  0  0  0  0  0
   -0.4735  -12.6656   -7.0424 C   0  0  0  0  0  0  0  0  0  0  0  0
   -1.5837  -12.0846   -6.5660 F   0  0  0  0  0  0  0  0  0  0  0  0
   -0.3516  -13.2830   -3.8803 C   0  0  0  0  0  0  0  0  0  0  0  0
   -1.0984  -14.3935   -4.2336 C   0  0  0  0  0  0  0  0  0  0  0  0
   -1.8165  -14.8140   -3.1100 C   0  0  0  0  0  0  0  0  0  0  0  0
   -1.4806  -13.9941   -2.0457 C   0  0  0  0  0  0  0  0  0  0  0  0
   -0.5900  -13.0538   -2.5349 N   0  0  0  0  0  0  0  0  0  0  0  0
   -1.9472  -14.0578   -0.6856 C   0  0  0  0  0  0  0  0  0  0  0  0
   -2.9118  -15.1568   -0.3244 C   0  0  0  0  0  0  0  0  0  0  0  0
   -4.2628  -14.8593   -0.0587 C   0  0  0  0  0  0  0  0  0  0  0  0
   -5.1632  -15.8776    0.2541 C   0  0  0  0  0  0  0  0  0  0  0  0
   -4.7338  -17.2030    0.2459 C   0  0  0  0  0  0  0  0  0  0  0  0
   -3.3967  -17.5124   -0.0505 C   0  0  0  0  0  0  0  0  0  0  0  0
   -2.9567  -19.2515   -0.1360 S   0  0  0  0  0  0  0  0  0  0  0  0
   -3.0237  -19.6455    1.2704 O   0  0  0  0  0  0  0  0  0  0  0  0
   -4.0237  -19.7985   -0.9745 O   0  0  0  0  0  0  0  0  0  0  0  0
   -1.6295  -19.3036   -0.7342 O   0  5  0  0  0  0  0  0  0  0  0  0
   -2.4827  -16.4991   -0.3084 C   0  0  0  0  0  0  0  0  0  0  0  0
   -1.1886  -16.7591   -0.5448 F   0  0  0  0  0  0  0  0  0  0  0  0
   -1.5723  -13.2019    0.2957 C   0  0  0  0  0  0  0  0  0  0  0  0
   -0.6685  -12.1469    0.2374 N   0  0  0  0  0  0  0  0  0  0  0  0
   -0.6673  -11.6120    1.4329 C   0  0  0  0  0  0  0  0  0  0  0  0
    0.1687  -10.4812    1.9660 C   0  0  0  0  0  0  0  0  0  0  0  0
    0.0165  -10.0498    3.3796 C   0  0  0  0  0  0  0  0  0  0  0  0
    0.4476  -10.8916    4.4227 C   0  0  0  0  0  0  0  0  0  0  0  0
    0.2363  -10.5337    5.7544 C   0  0  0  0  0  0  0  0  0  0  0  0
   -0.3616   -9.3122    6.0508 C   0  0  0  0  0  0  0  0  0  0  0  0
   -0.7637   -8.4555    5.0151 C   0  0  0  0  0  0  0  0  0  0  0  0
   -1.4154   -6.8512    5.4711 S   0  0  0  0  0  0  0  0  0  0  0  0
   -2.7702   -7.1865    5.8993 O   0  0  0  0  0  0  0  0  0  0  0  0
   -0.5051   -6.4629    6.5484 O   0  0  0  0  0  0  0  0  0  0  0  0
   -1.3105   -6.0436    4.2617 O   0  5  0  0  0  0  0  0  0  0  0  0
   -0.5971   -8.8248    3.6886 C   0  0  0  0  0  0  0  0  0  0  0  0
   -1.0172   -8.0503    2.6781 F   0  0  0  0  0  0  0  0  0  0  0  0
    1.0423   -9.8563    1.1535 C   0  0  0  0  0  0  0  0  0  0  0  0
    1.9018   -8.7351    1.5269 C   0  0  0  0  0  0  0  0  0  0  0  0
    2.5621   -8.3052    0.4376 C   0  0  0  0  0  0  0  0  0  0  0  0
    2.1906   -9.1426   -0.7024 C   0  0  0  0  0  0  0  0  0  0  0  0
    1.3197  -10.0627   -0.1761 N   0  0  0  0  0  0  0  0  0  0  0  0
   -1.6053  -12.2418    2.3747 C   0  0  0  0  0  0  0  0  0  0  0  0
   -2.0874  -13.2396    1.6480 C   0  0  0  0  0  0  0  0  0  0  0  0
    2.1088  -10.6355   -5.0993 C   0  0  0  0  0  0  0  0  0  0  0  0
    2.7461   -9.7178   -4.3867 C   0  0  0  0  0  0  0  0  0  0  0  0
    3.1337   -6.7904   -3.0810 C   0  0  0  0  0  0  0  0  0  0  0  0
    4.0591   -5.8742   -3.5904 C   0  0  0  0  0  0  0  0  0  0  0  0
    5.1656   -0.4073   -0.4553 C   0  0  0  0  0  0  0  0  0  0  0  0
    2.6736   -0.5915    0.9902 N   0  0  0  0  0  0  0  0  0  0  0  0
    2.0786   -1.4582    1.9281 C   0  0  0  0  0  0  0  0  0  0  0  0
    2.7100   -1.4583    3.1819 C   0  0  0  0  0  0  0  0  0  0  0  0
    2.1460   -2.1223    4.2682 C   0  0  0  0  0  0  0  0  0  0  0  0
    2.9723   -2.0046    5.7828 Cl  0  0  0  0  0  0  0  0  0  0  0  0
    0.9457   -2.8099    4.1058 C   0  0  0  0  0  0  0  0  0  0  0  0
    0.0897   -3.4177    5.4657 Cl  0  0  0  0  0  0  0  0  0  0  0  0
    0.3893   -2.9480    2.8302 C   0  0  0  0  0  0  0  0  0  0  0  0
    0.9622   -2.2878    1.7337 C   0  0  0  0  0  0  0  0  0  0  0  0
    0.3257   -2.6639    0.1725 Cl  0  0  0  0  0  0  0  0  0  0  0  0
    2.5885    1.2967   -1.5672 H   0  0  0  0  0  0  0  0  0  0  0  0
    4.5233    2.5199   -1.9443 H   0  0  0  0  0  0  0  0  0  0  0  0
    6.9438    2.6655   -1.8712 H   0  0  0  0  0  0  0  0  0  0  0  0
    8.2309    0.9119   -0.7957 H   0  0  0  0  0  0  0  0  0  0  0  0
    7.1239   -4.4506    0.7705 H   0  0  0  0  0  0  0  0  0  0  0  0
    8.5374   -3.4022    0.7002 H   0  0  0  0  0  0  0  0  0  0  0  0
    7.1658   -4.6340   -1.6552 H   0  0  0  0  0  0  0  0  0  0  0  0
    8.7127   -5.1560   -0.8827 H   0  0  0  0  0  0  0  0  0  0  0  0
    8.8501   -1.8624   -3.1712 H   0  0  0  0  0  0  0  0  0  0  0  0
    7.3919   -2.1689   -2.1371 H   0  0  0  0  0  0  0  0  0  0  0  0
    7.9669   -3.5621   -4.6858 H   0  0  0  0  0  0  0  0  0  0  0  0
    6.8842   -2.1736   -4.4809 H   0  0  0  0  0  0  0  0  0  0  0  0
    6.8449   -7.2000   -2.2580 H   0  0  0  0  0  0  0  0  0  0  0  0
    5.2332   -8.7731   -1.3595 H   0  0  0  0  0  0  0  0  0  0  0  0
    2.5958  -13.5917   -6.0144 H   0  0  0  0  0  0  0  0  0  0  0  0
    2.7911  -14.2144   -8.3506 H   0  0  0  0  0  0  0  0  0  0  0  0
    0.8864  -13.9475   -9.8285 H   0  0  0  0  0  0  0  0  0  0  0  0
   -1.1213  -14.8352   -5.1660 H   0  0  0  0  0  0  0  0  0  0  0  0
   -2.4832  -15.6012   -3.0791 H   0  0  0  0  0  0  0  0  0  0  0  0
   -0.1858  -12.3292   -2.0050 H   0  0  0  0  0  0  0  0  0  0  0  0
   -4.5887  -13.8808   -0.0957 H   0  0  0  0  0  0  0  0  0  0  0  0
   -6.1418  -15.6506    0.4903 H   0  0  0  0  0  0  0  0  0  0  0  0
   -5.4014  -17.9607    0.4586 H   0  0  0  0  0  0  0  0  0  0  0  0
    0.9234  -11.7800    4.2004 H   0  0  0  0  0  0  0  0  0  0  0  0
    0.5214  -11.1705    6.5148 H   0  0  0  0  0  0  0  0  0  0  0  0
   -0.5094   -9.0362    7.0342 H   0  0  0  0  0  0  0  0  0  0  0  0
    1.9881   -8.3370    2.4751 H   0  0  0  0  0  0  0  0  0  0  0  0
    3.2233   -7.5133    0.4103 H   0  0  0  0  0  0  0  0  0  0  0  0
    0.9311  -10.7997   -0.7005 H   0  0  0  0  0  0  0  0  0  0  0  0
   -1.8292  -11.9763    3.3465 H   0  0  0  0  0  0  0  0  0  0  0  0
   -2.7455  -13.9520    2.0008 H   0  0  0  0  0  0  0  0  0  0  0  0
    2.2217  -10.7658   -6.1168 H   0  0  0  0  0  0  0  0  0  0  0  0
    3.4602   -9.0377   -4.6909 H   0  0  0  0  0  0  0  0  0  0  0  0
    2.1277   -6.6628   -3.2728 H   0  0  0  0  0  0  0  0  0  0  0  0
    3.7434   -5.0745   -4.1612 H   0  0  0  0  0  0  0  0  0  0  0  0
    4.6943   -1.2745   -0.1539 H   0  0  0  0  0  0  0  0  0  0  0  0
    3.6307   -0.4107    1.1333 H   0  0  0  0  0  0  0  0  0  0  0  0
    3.6053   -0.9589    3.3003 H   0  0  0  0  0  0  0  0  0  0  0  0
   -0.4464   -3.5383    2.6953 H   0  0  0  0  0  0  0  0  0  0  0  0
  1  2  2  0  0  0  0
  2  3  1  0  0  0  0
  2 84  1  0  0  0  0
  3  4  1  0  0  0  0
  3 94  1  0  0  0  0
  4  5  1  0  0  0  0
  4 83  2  0  0  0  0
  5  6  2  0  0  0  0
  5 95  1  0  0  0  0
  6  7  1  0  0  0  0
  6 96  1  0  0  0  0
  7  8  2  0  0  0  0
  7 97  1  0  0  0  0
  8  9  1  0  0  0  0
  8 83  1  0  0  0  0
  9 10  2  0  0  0  0
  9 11  1  0  0  0  0
 11 12  1  0  0  0  0
 12 13  1  0  0  0  0
 12 98  1  0  0  0  0
 12 99  1  0  0  0  0
 13 14  1  0  0  0  0
 13100  1  0  0  0  0
 13101  1  0  0  0  0
 14 15  1  0  0  0  0
 15 16  1  0  0  0  0
 15102  1  0  0  0  0
 15103  1  0  0  0  0
 16 17  1  0  0  0  0
 16104  1  0  0  0  0
 16105  1  0  0  0  0
 17 18  1  0  0  0  0
 18 19  2  0  0  0  0
 18 20  1  0  0  0  0
 20 21  1  0  0  0  0
 20 82  2  0  0  0  0
 21 22  2  0  0  0  0
 21106  1  0  0  0  0
 22 23  1  0  0  0  0
 22107  1  0  0  0  0
 23 24  1  0  0  0  0
 23 81  2  0  0  0  0
 24 25  1  0  0  0  0
 24 75  2  0  0  0  0
 25 26  2  0  0  0  0
 25 80  1  0  0  0  0
 26 27  1  0  0  0  0
 27 28  2  0  0  0  0
 27 79  1  0  0  0  0
 28 29  1  0  0  0  0
 28 40  1  0  0  0  0
 29 30  1  0  0  0  0
 29 38  2  0  0  0  0
 30 31  2  0  0  0  0
 30108  1  0  0  0  0
 31 32  1  0  0  0  0
 31109  1  0  0  0  0
 32 33  2  0  0  0  0
 32110  1  0  0  0  0
 33 34  1  0  0  0  0
 33 38  1  0  0  0  0
 34 35  2  0  0  0  0
 34 36  2  0  0  0  0
 34 37  1  0  0  0  0
 38 39  1  0  0  0  0
 40 41  2  0  0  0  0
 40 44  1  0  0  0  0
 41 42  1  0  0  0  0
 41111  1  0  0  0  0
 42 43  2  0  0  0  0
 42112  1  0  0  0  0
 43 44  1  0  0  0  0
 43 45  1  0  0  0  0
 44113  1  0  0  0  0
 45 46  1  0  0  0  0
 45 57  2  0  0  0  0
 46 47  1  0  0  0  0
 46 55  2  0  0  0  0
 47 48  2  0  0  0  0
 47114  1  0  0  0  0
 48 49  1  0  0  0  0
 48115  1  0  0  0  0
 49 50  2  0  0  0  0
 49116  1  0  0  0  0
 50 51  1  0  0  0  0
 50 55  1  0  0  0  0
 51 52  2  0  0  0  0
 51 53  2  0  0  0  0
 51 54  1  0  0  0  0
 55 56  1  0  0  0  0
 57 58  1  0  0  0  0
 57 78  1  0  0  0  0
 58 59  2  0  0  0  0
 59 60  1  0  0  0  0
 59 77  1  0  0  0  0
 60 61  1  0  0  0  0
 60 72  2  0  0  0  0
 61 62  1  0  0  0  0
 61 70  2  0  0  0  0
 62 63  2  0  0  0  0
 62117  1  0  0  0  0
 63 64  1  0  0  0  0
 63118  1  0  0  0  0
 64 65  2  0  0  0  0
 64119  1  0  0  0  0
 65 66  1  0  0  0  0
 65 70  1  0  0  0  0
 66 67  2  0  0  0  0
 66 68  2  0  0  0  0
 66 69  1  0  0  0  0
 70 71  1  0  0  0  0
 72 73  1  0  0  0  0
 72 76  1  0  0  0  0
 73 74  2  0  0  0  0
 73120  1  0  0  0  0
 74 75  1  0  0  0  0
 74121  1  0  0  0  0
 75 76  1  0  0  0  0
 76122  1  0  0  0  0
 77 78  2  0  0  0  0
 77123  1  0  0  0  0
 78124  1  0  0  0  0
 79 80  2  0  0  0  0
 79125  1  0  0  0  0
 80126  1  0  0  0  0
 81 82  1  0  0  0  0
 81127  1  0  0  0  0
 82128  1  0  0  0  0
 83129  1  0  0  0  0
 84 85  1  0  0  0  0
 84130  1  0  0  0  0
 85 86  1  0  0  0  0
 85 92  2  0  0  0  0
 86 87  2  0  0  0  0
 86131  1  0  0  0  0
 87 88  1  0  0  0  0
 87 89  1  0  0  0  0
 89 90  1  0  0  0  0
 89 91  2  0  0  0  0
 91 92  1  0  0  0  0
 91132  1  0  0  0  0
 92 93  1  0  0  0  0
M  CHG  3  37  -1  54  -1  69  -1
M  END
$$$$
