6_4_642
 OpenBabel04152301373D

150160  0  0  1  0  0  0  0  0999 V2000
    0.9272   -0.2258   -0.3675 C   0  0  0  0  0  0  0  0  0  0  0  0
    0.2632   -0.1671    0.9818 C   0  0  0  0  0  0  0  0  0  0  0  0
   -0.0571   -1.2416    1.7278 C   0  0  0  0  0  0  0  0  0  0  0  0
    0.2083   -2.6783    1.3614 C   0  0  0  0  0  0  0  0  0  0  0  0
   -0.7804   -1.0696    3.0328 C   0  0  0  0  0  0  0  0  0  0  0  0
   -0.4691    0.2209    3.8053 C   0  0  1  0  0  0  0  0  0  0  0  0
    0.2347   -0.2035    5.0881 C   0  0  0  0  0  0  0  0  0  0  0  0
   -0.4023   -0.3936    6.1228 O   0  0  0  0  0  0  0  0  0  0  0  0
    1.5562   -0.4242    4.9636 O   0  0  0  0  0  0  0  0  0  0  0  0
    2.2806   -0.7507    6.1678 C   0  0  0  0  0  0  0  0  0  0  0  0
    2.8266    0.4918    6.8791 C   0  0  0  0  0  0  0  0  0  0  0  0
    1.8794    1.2254    7.6593 O   0  0  0  0  0  0  0  0  0  0  0  0
    1.1384    2.2306    6.9758 C   0  0  0  0  0  0  0  0  0  0  0  0
    1.8835    3.5366    6.7172 C   0  0  0  0  0  0  0  0  0  0  0  0
    2.9634    3.3576    5.7771 O   0  0  0  0  0  0  0  0  0  0  0  0
    4.2137    3.4995    6.2815 C   0  0  0  0  0  0  0  0  0  0  0  0
    4.4881    3.8912    7.4013 O   0  0  0  0  0  0  0  0  0  0  0  0
    5.2465    2.9852    5.3434 C   0  0  0  0  0  0  0  0  0  0  0  0
    6.2978    2.2563    5.9056 C   0  0  0  0  0  0  0  0  0  0  0  0
    7.3900    1.8771    5.1243 C   0  0  0  0  0  0  0  0  0  0  0  0
    7.4506    2.2272    3.7684 C   0  0  0  0  0  0  0  0  0  0  0  0
    8.6970    1.9662    3.0041 C   0  0  0  0  0  0  0  0  0  0  0  0
    9.6660    3.0865    2.7311 C   0  0  0  0  0  0  0  0  0  0  0  0
   10.8547    3.0355    2.1853 N   0  0  0  0  0  0  0  0  0  0  0  0
   11.3201    4.3453    2.1556 C   0  0  0  0  0  0  0  0  0  0  0  0
   12.5160    4.8138    1.7215 C   0  0  0  0  0  0  0  0  0  0  0  0
   12.7846    6.2930    1.8506 C   0  0  0  0  0  0  0  0  0  0  0  0
   12.9958    6.8558    3.1261 C   0  0  0  0  0  0  0  0  0  0  0  0
   13.2938    8.2113    3.2655 C   0  0  0  0  0  0  0  0  0  0  0  0
   13.4320    9.0044    2.1298 C   0  0  0  0  0  0  0  0  0  0  0  0
   13.2511    8.4495    0.8524 C   0  0  0  0  0  0  0  0  0  0  0  0
   13.5319    9.5365   -0.5505 S   0  0  0  0  0  0  0  0  0  0  0  0
   12.3845   10.4386   -0.4588 O   0  0  0  0  0  0  0  0  0  0  0  0
   14.8168   10.1494   -0.2125 O   0  0  0  0  0  0  0  0  0  0  0  0
   13.5573    8.6790   -1.7269 O   0  5  0  0  0  0  0  0  0  0  0  0
   12.9093    7.1094    0.7084 C   0  0  0  0  0  0  0  0  0  0  0  0
   12.6917    6.5617   -0.4956 F   0  0  0  0  0  0  0  0  0  0  0  0
   13.5585    3.9874    1.1693 C   0  0  0  0  0  0  0  0  0  0  0  0
   14.8301    4.3611    0.7685 C   0  0  0  0  0  0  0  0  0  0  0  0
   15.4689    3.2389    0.2307 C   0  0  0  0  0  0  0  0  0  0  0  0
   14.6139    2.1549    0.3406 C   0  0  0  0  0  0  0  0  0  0  0  0
   13.4456    2.6296    0.9149 N   0  0  0  0  0  0  0  0  0  0  0  0
   14.8419    0.7893   -0.0592 C   0  0  0  0  0  0  0  0  0  0  0  0
   16.1785    0.4494   -0.6719 C   0  0  0  0  0  0  0  0  0  0  0  0
   16.2717    0.1525   -2.0464 C   0  0  0  0  0  0  0  0  0  0  0  0
   17.5062   -0.1356   -2.6291 C   0  0  0  0  0  0  0  0  0  0  0  0
   18.6633   -0.0733   -1.8565 C   0  0  0  0  0  0  0  0  0  0  0  0
   18.5870    0.2545   -0.4934 C   0  0  0  0  0  0  0  0  0  0  0  0
   20.1397    0.4064    0.3977 S   0  0  0  0  0  0  0  0  0  0  0  0
   20.5783   -0.9864    0.4718 O   0  0  0  0  0  0  0  0  0  0  0  0
   20.9306    1.2475   -0.5012 O   0  0  0  0  0  0  0  0  0  0  0  0
   19.8133    1.0250    1.6754 O   0  5  0  0  0  0  0  0  0  0  0  0
   17.3546    0.4903    0.1048 C   0  0  0  0  0  0  0  0  0  0  0  0
   17.2468    0.7593    1.4140 F   0  0  0  0  0  0  0  0  0  0  0  0
   13.9334   -0.2093    0.0715 C   0  0  0  0  0  0  0  0  0  0  0  0
   12.6546   -0.1638    0.6176 N   0  0  0  0  0  0  0  0  0  0  0  0
   12.1641   -1.3726    0.4890 C   0  0  0  0  0  0  0  0  0  0  0  0
   10.8446   -1.9187    0.9679 C   0  0  0  0  0  0  0  0  0  0  0  0
   10.4938   -3.3518    0.7602 C   0  0  0  0  0  0  0  0  0  0  0  0
   11.2150   -4.3542    1.4369 C   0  0  0  0  0  0  0  0  0  0  0  0
   10.9131   -5.7020    1.2389 C   0  0  0  0  0  0  0  0  0  0  0  0
    9.8532   -6.0554    0.4077 C   0  0  0  0  0  0  0  0  0  0  0  0
    9.1053   -5.0623   -0.2436 C   0  0  0  0  0  0  0  0  0  0  0  0
    7.6805   -5.6021   -1.1939 S   0  0  0  0  0  0  0  0  0  0  0  0
    8.3130   -6.2872   -2.3183 O   0  0  0  0  0  0  0  0  0  0  0  0
    6.9996   -6.4796   -0.2412 O   0  0  0  0  0  0  0  0  0  0  0  0
    6.9446   -4.3904   -1.5279 O   0  5  0  0  0  0  0  0  0  0  0  0
    9.4381   -3.7219   -0.0954 C   0  0  0  0  0  0  0  0  0  0  0  0
    8.7741   -2.7521   -0.7397 F   0  0  0  0  0  0  0  0  0  0  0  0
    9.9913   -1.1093    1.6266 C   0  0  0  0  0  0  0  0  0  0  0  0
    8.7062   -1.5125    2.1951 C   0  0  0  0  0  0  0  0  0  0  0  0
    8.1120   -0.4423    2.7488 C   0  0  0  0  0  0  0  0  0  0  0  0
    8.9825    0.7203    2.5838 C   0  0  0  0  0  0  0  0  0  0  0  0
   10.0809    0.2296    1.9227 N   0  0  0  0  0  0  0  0  0  0  0  0
   13.0664   -2.3148   -0.1903 C   0  0  0  0  0  0  0  0  0  0  0  0
   14.1494   -1.5710   -0.3709 C   0  0  0  0  0  0  0  0  0  0  0  0
   10.2727    5.1735    2.7152 C   0  0  0  0  0  0  0  0  0  0  0  0
    9.2430    4.4414    3.1194 C   0  0  0  0  0  0  0  0  0  0  0  0
    6.3529    2.8751    3.1846 C   0  0  0  0  0  0  0  0  0  0  0  0
    5.2543    3.2506    3.9719 C   0  0  0  0  0  0  0  0  0  0  0  0
   -0.0414    1.4632    2.9629 C   0  0  1  0  0  0  0  0  0  0  0  0
    1.2640    2.1883    3.2926 C   0  0  0  0  0  0  0  0  0  0  0  0
    2.2865    1.6067    3.6404 O   0  0  0  0  0  0  0  0  0  0  0  0
    1.3436    3.5583    3.1829 N   0  0  0  0  0  0  0  0  0  0  0  0
    0.6771    4.4619    2.2505 C   0  0  0  0  0  0  0  0  0  0  0  0
    0.2013    5.8302    2.8105 C   0  0  0  0  0  0  0  0  0  0  0  0
    1.0708    6.9784    3.1014 N   0  3  0  0  0  0  0  0  0  0  0  0
    2.2751    7.1902    2.2879 C   0  0  0  0  0  0  0  0  0  0  0  0
    3.5298    6.4876    2.8256 C   0  0  0  0  0  0  0  0  0  0  0  0
    3.7507    6.7614    4.2145 O   0  0  0  0  0  0  0  0  0  0  0  0
    2.5931    6.4540    4.9911 C   0  0  0  0  0  0  0  0  0  0  0  0
    1.3656    7.2247    4.5186 C   0  0  0  0  0  0  0  0  0  0  0  0
   -0.0908    1.2229    1.4449 C   0  0  0  0  0  0  0  0  0  0  0  0
    1.1419   -1.2443   -0.6153 H   0  0  0  0  0  0  0  0  0  0  0  0
    1.8383    0.3346   -0.3413 H   0  0  0  0  0  0  0  0  0  0  0  0
    0.2734    0.1906   -1.1052 H   0  0  0  0  0  0  0  0  0  0  0  0
    0.7238   -2.7181    0.4246 H   0  0  0  0  0  0  0  0  0  0  0  0
   -0.7206   -3.2031    1.2799 H   0  0  0  0  0  0  0  0  0  0  0  0
    0.8103   -3.1343    2.1194 H   0  0  0  0  0  0  0  0  0  0  0  0
   -0.5256   -1.8976    3.6608 H   0  0  0  0  0  0  0  0  0  0  0  0
   -1.8196   -1.0154    2.7838 H   0  0  0  0  0  0  0  0  0  0  0  0
   -1.3404    0.7483    4.1332 H   0  0  0  0  0  0  0  0  0  0  0  0
    3.1011   -1.3883    5.9125 H   0  0  0  0  0  0  0  0  0  0  0  0
    1.5993   -1.2348    6.8359 H   0  0  0  0  0  0  0  0  0  0  0  0
    3.2198    1.1512    6.1338 H   0  0  0  0  0  0  0  0  0  0  0  0
    3.5597    0.1334    7.5712 H   0  0  0  0  0  0  0  0  0  0  0  0
    0.2717    2.4563    7.5613 H   0  0  0  0  0  0  0  0  0  0  0  0
    0.9148    1.8249    6.0113 H   0  0  0  0  0  0  0  0  0  0  0  0
    2.2846    3.8960    7.6418 H   0  0  0  0  0  0  0  0  0  0  0  0
    1.1916    4.2386    6.3008 H   0  0  0  0  0  0  0  0  0  0  0  0
    6.2663    1.9970    6.9040 H   0  0  0  0  0  0  0  0  0  0  0  0
    8.1590    1.3348    5.5480 H   0  0  0  0  0  0  0  0  0  0  0  0
   12.9292    6.2587    3.9652 H   0  0  0  0  0  0  0  0  0  0  0  0
   13.4110    8.6235    4.2043 H   0  0  0  0  0  0  0  0  0  0  0  0
   13.6684   10.0043    2.2269 H   0  0  0  0  0  0  0  0  0  0  0  0
   15.2369    5.3058    0.8522 H   0  0  0  0  0  0  0  0  0  0  0  0
   16.4162    3.2216   -0.1784 H   0  0  0  0  0  0  0  0  0  0  0  0
   12.6515    2.0825    1.1132 H   0  0  0  0  0  0  0  0  0  0  0  0
   15.4188    0.1481   -2.6274 H   0  0  0  0  0  0  0  0  0  0  0  0
   17.5616   -0.3934   -3.6268 H   0  0  0  0  0  0  0  0  0  0  0  0
   19.5803   -0.2688   -2.2876 H   0  0  0  0  0  0  0  0  0  0  0  0
   11.9734   -4.0897    2.0849 H   0  0  0  0  0  0  0  0  0  0  0  0
   11.4722   -6.4330    1.7059 H   0  0  0  0  0  0  0  0  0  0  0  0
    9.6169   -7.0505    0.2702 H   0  0  0  0  0  0  0  0  0  0  0  0
    8.3170   -2.4681    2.1744 H   0  0  0  0  0  0  0  0  0  0  0  0
    7.1911   -0.4412    3.2147 H   0  0  0  0  0  0  0  0  0  0  0  0
   10.8586    0.7839    1.6835 H   0  0  0  0  0  0  0  0  0  0  0  0
   12.9002   -3.2978   -0.4568 H   0  0  0  0  0  0  0  0  0  0  0  0
   15.0332   -1.9183   -0.7751 H   0  0  0  0  0  0  0  0  0  0  0  0
   10.3210    6.2016    2.7900 H   0  0  0  0  0  0  0  0  0  0  0  0
    8.3726    4.7432    3.5846 H   0  0  0  0  0  0  0  0  0  0  0  0
    6.3531    3.0764    2.1724 H   0  0  0  0  0  0  0  0  0  0  0  0
    4.4482    3.7251    3.5359 H   0  0  0  0  0  0  0  0  0  0  0  0
   -0.8092    2.1337    3.2881 H   0  0  0  0  0  0  0  0  0  0  0  0
    1.9410    3.9949    3.8322 H   0  0  0  0  0  0  0  0  0  0  0  0
   -0.1830    3.9534    1.8678 H   0  0  0  0  0  0  0  0  0  0  0  0
    1.4207    4.7047    1.5204 H   0  0  0  0  0  0  0  0  0  0  0  0
   -0.2880    5.6037    3.7347 H   0  0  0  0  0  0  0  0  0  0  0  0
   -0.3318    6.2066    1.9625 H   0  0  0  0  0  0  0  0  0  0  0  0
    0.4184    7.6923    2.7771 H   0  0  0  0  0  0  0  0  0  0  0  0
    2.4711    8.2413    2.2460 H   0  0  0  0  0  0  0  0  0  0  0  0
    2.0744    6.7671    1.3258 H   0  0  0  0  0  0  0  0  0  0  0  0
    4.3789    6.8249    2.2687 H   0  0  0  0  0  0  0  0  0  0  0  0
    3.3870    5.4327    2.7176 H   0  0  0  0  0  0  0  0  0  0  0  0
    2.7863    6.7054    6.0131 H   0  0  0  0  0  0  0  0  0  0  0  0
    2.3895    5.4094    4.8806 H   0  0  0  0  0  0  0  0  0  0  0  0
    0.5223    6.9230    5.1040 H   0  0  0  0  0  0  0  0  0  0  0  0
    1.5664    8.2690    4.6368 H   0  0  0  0  0  0  0  0  0  0  0  0
   -1.0856    1.4348    1.1126 H   0  0  0  0  0  0  0  0  0  0  0  0
    0.6574    1.8641    1.0279 H   0  0  0  0  0  0  0  0  0  0  0  0
  1  2  1  0  0  0  0
  1 94  1  0  0  0  0
  1 95  1  0  0  0  0
  1 96  1  0  0  0  0
  2  3  2  0  0  0  0
  2 93  1  0  0  0  0
  3  4  1  0  0  0  0
  3  5  1  0  0  0  0
  4 97  1  0  0  0  0
  4 98  1  0  0  0  0
  4 99  1  0  0  0  0
  5  6  1  0  0  0  0
  5100  1  0  0  0  0
  5101  1  0  0  0  0
  6  7  1  0  0  0  0
  6 81  1  0  0  0  0
  6102  1  1  0  0  0
  7  8  2  0  0  0  0
  7  9  1  0  0  0  0
  9 10  1  0  0  0  0
 10 11  1  0  0  0  0
 10103  1  0  0  0  0
 10104  1  0  0  0  0
 11 12  1  0  0  0  0
 11105  1  0  0  0  0
 11106  1  0  0  0  0
 12 13  1  0  0  0  0
 13 14  1  0  0  0  0
 13107  1  0  0  0  0
 13108  1  0  0  0  0
 14 15  1  0  0  0  0
 14109  1  0  0  0  0
 14110  1  0  0  0  0
 15 16  1  0  0  0  0
 16 17  2  0  0  0  0
 16 18  1  0  0  0  0
 18 19  1  0  0  0  0
 18 80  2  0  0  0  0
 19 20  2  0  0  0  0
 19111  1  0  0  0  0
 20 21  1  0  0  0  0
 20112  1  0  0  0  0
 21 22  1  0  0  0  0
 21 79  2  0  0  0  0
 22 23  1  0  0  0  0
 22 73  2  0  0  0  0
 23 24  2  0  0  0  0
 23 78  1  0  0  0  0
 24 25  1  0  0  0  0
 25 26  2  0  0  0  0
 25 77  1  0  0  0  0
 26 27  1  0  0  0  0
 26 38  1  0  0  0  0
 27 28  1  0  0  0  0
 27 36  2  0  0  0  0
 28 29  2  0  0  0  0
 28113  1  0  0  0  0
 29 30  1  0  0  0  0
 29114  1  0  0  0  0
 30 31  2  0  0  0  0
 30115  1  0  0  0  0
 31 32  1  0  0  0  0
 31 36  1  0  0  0  0
 32 33  2  0  0  0  0
 32 34  2  0  0  0  0
 32 35  1  0  0  0  0
 36 37  1  0  0  0  0
 38 39  2  0  0  0  0
 38 42  1  0  0  0  0
 39 40  1  0  0  0  0
 39116  1  0  0  0  0
 40 41  2  0  0  0  0
 40117  1  0  0  0  0
 41 42  1  0  0  0  0
 41 43  1  0  0  0  0
 42118  1  0  0  0  0
 43 44  1  0  0  0  0
 43 55  2  0  0  0  0
 44 45  1  0  0  0  0
 44 53  2  0  0  0  0
 45 46  2  0  0  0  0
 45119  1  0  0  0  0
 46 47  1  0  0  0  0
 46120  1  0  0  0  0
 47 48  2  0  0  0  0
 47121  1  0  0  0  0
 48 49  1  0  0  0  0
 48 53  1  0  0  0  0
 49 50  2  0  0  0  0
 49 51  2  0  0  0  0
 49 52  1  0  0  0  0
 53 54  1  0  0  0  0
 55 56  1  0  0  0  0
 55 76  1  0  0  0  0
 56 57  2  0  0  0  0
 57 58  1  0  0  0  0
 57 75  1  0  0  0  0
 58 59  1  0  0  0  0
 58 70  2  0  0  0  0
 59 60  1  0  0  0  0
 59 68  2  0  0  0  0
 60 61  2  0  0  0  0
 60122  1  0  0  0  0
 61 62  1  0  0  0  0
 61123  1  0  0  0  0
 62 63  2  0  0  0  0
 62124  1  0  0  0  0
 63 64  1  0  0  0  0
 63 68  1  0  0  0  0
 64 65  2  0  0  0  0
 64 66  2  0  0  0  0
 64 67  1  0  0  0  0
 68 69  1  0  0  0  0
 70 71  1  0  0  0  0
 70 74  1  0  0  0  0
 71 72  2  0  0  0  0
 71125  1  0  0  0  0
 72 73  1  0  0  0  0
 72126  1  0  0  0  0
 73 74  1  0  0  0  0
 74127  1  0  0  0  0
 75 76  2  0  0  0  0
 75128  1  0  0  0  0
 76129  1  0  0  0  0
 77 78  2  0  0  0  0
 77130  1  0  0  0  0
 78131  1  0  0  0  0
 79 80  1  0  0  0  0
 79132  1  0  0  0  0
 80133  1  0  0  0  0
 81 93  1  0  0  0  0
 81 82  1  0  0  0  0
 81134  1  1  0  0  0
 82 83  2  0  0  0  0
 82 84  1  0  0  0  0
 84 85  1  0  0  0  0
 84135  1  0  0  0  0
 85 86  1  0  0  0  0
 85136  1  0  0  0  0
 85137  1  0  0  0  0
 86 87  1  0  0  0  0
 86138  1  0  0  0  0
 86139  1  0  0  0  0
 87 88  1  0  0  0  0
 87 92  1  0  0  0  0
 87140  1  0  0  0  0
 88 89  1  0  0  0  0
 88141  1  0  0  0  0
 88142  1  0  0  0  0
 89 90  1  0  0  0  0
 89143  1  0  0  0  0
 89144  1  0  0  0  0
 90 91  1  0  0  0  0
 91 92  1  0  0  0  0
 91145  1  0  0  0  0
 91146  1  0  0  0  0
 92147  1  0  0  0  0
 92148  1  0  0  0  0
 93149  1  0  0  0  0
 93150  1  0  0  0  0
M  CHG  4  35  -1  52  -1  67  -1  87   1
M  END
$$$$
