6_4_8035
 OpenBabel04152301363D

123132  0  0  1  0  0  0  0  0999 V2000
    1.0146   -0.4300    0.0033 C   0  0  0  0  0  0  0  0  0  0  0  0
    0.4503   -0.2329    1.4006 C   0  0  0  0  0  0  0  0  0  0  0  0
    0.6744    1.1151    1.8849 N   0  0  0  0  0  0  0  0  0  0  0  0
   -0.0191    2.2568    1.3480 C   0  0  0  0  0  0  0  0  0  0  0  0
    0.8319    3.4131    1.8205 C   0  0  1  0  0  0  0  0  0  0  0  0
    0.0254    4.6754    1.7344 C   0  0  0  0  0  0  0  0  0  0  0  0
   -0.1264    5.2670    0.6716 O   0  0  0  0  0  0  0  0  0  0  0  0
   -0.4926    5.0571    2.9262 O   0  0  0  0  0  0  0  0  0  0  0  0
   -1.1416    6.3379    2.9377 C   0  0  0  0  0  0  0  0  0  0  0  0
   -0.3958    7.3392    3.8232 C   0  0  0  0  0  0  0  0  0  0  0  0
    0.9642    7.6120    3.4874 O   0  0  0  0  0  0  0  0  0  0  0  0
    1.9448    6.6287    3.8180 C   0  0  0  0  0  0  0  0  0  0  0  0
    2.3003    6.4414    5.2988 C   0  0  0  0  0  0  0  0  0  0  0  0
    1.2000    5.9440    6.0799 O   0  0  0  0  0  0  0  0  0  0  0  0
    0.7248    6.8165    7.0015 C   0  0  0  0  0  0  0  0  0  0  0  0
    1.1647    7.9316    7.2538 O   0  0  0  0  0  0  0  0  0  0  0  0
   -0.5484    6.3334    7.5633 C   0  0  0  0  0  0  0  0  0  0  0  0
   -1.6538    7.1911    7.4840 C   0  0  0  0  0  0  0  0  0  0  0  0
   -2.8415    6.8605    8.1307 C   0  0  0  0  0  0  0  0  0  0  0  0
   -2.9235    5.6788    8.8776 C   0  0  0  0  0  0  0  0  0  0  0  0
   -4.0985    5.4534    9.7536 C   0  0  0  0  0  0  0  0  0  0  0  0
   -3.9784    5.7308   11.2273 C   0  0  0  0  0  0  0  0  0  0  0  0
   -4.8774    5.6076   12.1684 N   0  0  0  0  0  0  0  0  0  0  0  0
   -4.2387    5.9603   13.3512 C   0  0  0  0  0  0  0  0  0  0  0  0
   -4.7466    6.0190   14.6053 C   0  0  0  0  0  0  0  0  0  0  0  0
   -3.8215    6.4550   15.7111 C   0  0  0  0  0  0  0  0  0  0  0  0
   -3.4250    7.8050   15.8000 C   0  0  0  0  0  0  0  0  0  0  0  0
   -2.5732    8.2295   16.8193 C   0  0  0  0  0  0  0  0  0  0  0  0
   -2.1516    7.3195   17.7850 C   0  0  0  0  0  0  0  0  0  0  0  0
   -2.5643    5.9786   17.7229 C   0  0  0  0  0  0  0  0  0  0  0  0
   -2.0337    4.8968   19.0551 S   0  0  0  0  0  0  0  0  0  0  0  0
   -0.6293    4.6758   18.7143 O   0  0  0  0  0  0  0  0  0  0  0  0
   -2.2496    5.7322   20.2372 O   0  0  0  0  0  0  0  0  0  0  0  0
   -2.8913    3.7224   18.9807 O   0  5  0  0  0  0  0  0  0  0  0  0
   -3.3781    5.5392   16.6849 C   0  0  0  0  0  0  0  0  0  0  0  0
   -3.7442    4.2547   16.5698 F   0  0  0  0  0  0  0  0  0  0  0  0
   -6.1111    5.7107   14.9383 C   0  0  0  0  0  0  0  0  0  0  0  0
   -6.7382    5.8014   16.1684 C   0  0  0  0  0  0  0  0  0  0  0  0
   -8.0556    5.3533   16.0212 C   0  0  0  0  0  0  0  0  0  0  0  0
   -8.2572    5.0115   14.6934 C   0  0  0  0  0  0  0  0  0  0  0  0
   -7.0562    5.2357   14.0422 N   0  0  0  0  0  0  0  0  0  0  0  0
   -9.4520    4.5009   14.0699 C   0  0  0  0  0  0  0  0  0  0  0  0
  -10.6591    4.2876   14.9475 C   0  0  0  0  0  0  0  0  0  0  0  0
  -11.0421    2.9803   15.3069 C   0  0  0  0  0  0  0  0  0  0  0  0
  -12.1279    2.7675   16.1562 C   0  0  0  0  0  0  0  0  0  0  0  0
  -12.8062    3.8591   16.6932 C   0  0  0  0  0  0  0  0  0  0  0  0
  -12.4161    5.1669   16.3631 C   0  0  0  0  0  0  0  0  0  0  0  0
  -13.2835    6.5137   17.1769 S   0  0  0  0  0  0  0  0  0  0  0  0
  -14.5597    6.5203   16.4641 O   0  0  0  0  0  0  0  0  0  0  0  0
  -13.3606    6.0442   18.5609 O   0  0  0  0  0  0  0  0  0  0  0  0
  -12.4538    7.6960   16.9876 O   0  5  0  0  0  0  0  0  0  0  0  0
  -11.3656    5.3851   15.4792 C   0  0  0  0  0  0  0  0  0  0  0  0
  -10.9987    6.6214   15.1114 F   0  0  0  0  0  0  0  0  0  0  0  0
   -9.5616    4.1806   12.7563 C   0  0  0  0  0  0  0  0  0  0  0  0
   -8.6131    4.2902   11.7447 N   0  0  0  0  0  0  0  0  0  0  0  0
   -9.1854    3.8250   10.6605 C   0  0  0  0  0  0  0  0  0  0  0  0
   -8.6447    3.7591    9.2562 C   0  0  0  0  0  0  0  0  0  0  0  0
   -9.4717    3.2247    8.1383 C   0  0  0  0  0  0  0  0  0  0  0  0
  -10.5950    3.9480    7.6948 C   0  0  0  0  0  0  0  0  0  0  0  0
  -11.3721    3.4741    6.6370 C   0  0  0  0  0  0  0  0  0  0  0  0
  -11.0032    2.3019    5.9819 C   0  0  0  0  0  0  0  0  0  0  0  0
   -9.8694    1.5876    6.3984 C   0  0  0  0  0  0  0  0  0  0  0  0
   -9.3903    0.1660    5.4103 S   0  0  0  0  0  0  0  0  0  0  0  0
  -10.4526   -0.7867    5.7212 O   0  0  0  0  0  0  0  0  0  0  0  0
   -9.4314    0.7159    4.0547 O   0  0  0  0  0  0  0  0  0  0  0  0
   -8.0574   -0.2019    5.8679 O   0  5  0  0  0  0  0  0  0  0  0  0
   -9.1249    2.0245    7.4872 C   0  0  0  0  0  0  0  0  0  0  0  0
   -8.0607    1.3439    7.9359 F   0  0  0  0  0  0  0  0  0  0  0  0
   -7.4051    4.2246    9.0039 C   0  0  0  0  0  0  0  0  0  0  0  0
   -6.7589    4.2602    7.6928 C   0  0  0  0  0  0  0  0  0  0  0  0
   -5.5020    4.7146    7.8319 C   0  0  0  0  0  0  0  0  0  0  0  0
   -5.2635    5.0199    9.2410 C   0  0  0  0  0  0  0  0  0  0  0  0
   -6.4579    4.7398    9.8557 N   0  0  0  0  0  0  0  0  0  0  0  0
  -10.5560    3.3355   10.8700 C   0  0  0  0  0  0  0  0  0  0  0  0
  -10.7533    3.6227   12.1501 C   0  0  0  0  0  0  0  0  0  0  0  0
   -2.8720    6.2921   13.0107 C   0  0  0  0  0  0  0  0  0  0  0  0
   -2.6697    6.2081   11.7039 C   0  0  0  0  0  0  0  0  0  0  0  0
   -1.8338    4.7886    8.8936 C   0  0  0  0  0  0  0  0  0  0  0  0
   -0.6410    5.1151    8.2385 C   0  0  0  0  0  0  0  0  0  0  0  0
    1.3459    2.9416    3.1794 C   0  0  0  0  0  0  0  0  0  0  0  0
    1.4753    1.4524    2.9643 C   0  0  0  0  0  0  0  0  0  0  0  0
    2.1608    0.7007    3.6381 O   0  0  0  0  0  0  0  0  0  0  0  0
    0.8298   -1.4339   -0.3176 H   0  0  0  0  0  0  0  0  0  0  0  0
    2.0689   -0.2478    0.0154 H   0  0  0  0  0  0  0  0  0  0  0  0
    0.5424    0.2529   -0.6717 H   0  0  0  0  0  0  0  0  0  0  0  0
    0.9241   -0.9237    2.0664 H   0  0  0  0  0  0  0  0  0  0  0  0
   -0.6056   -0.4013    1.3604 H   0  0  0  0  0  0  0  0  0  0  0  0
   -1.0129    2.3238    1.7389 H   0  0  0  0  0  0  0  0  0  0  0  0
   -0.1364    2.2218    0.2850 H   0  0  0  0  0  0  0  0  0  0  0  0
    1.6899    3.6741    1.2369 H   0  0  0  0  0  0  0  0  0  0  0  0
   -2.1376    6.2192    3.3104 H   0  0  0  0  0  0  0  0  0  0  0  0
   -1.1508    6.7176    1.9374 H   0  0  0  0  0  0  0  0  0  0  0  0
   -0.4117    6.9601    4.8236 H   0  0  0  0  0  0  0  0  0  0  0  0
   -0.9083    8.2683    3.6854 H   0  0  0  0  0  0  0  0  0  0  0  0
    2.8459    6.8916    3.3044 H   0  0  0  0  0  0  0  0  0  0  0  0
    1.5020    5.6989    3.5279 H   0  0  0  0  0  0  0  0  0  0  0  0
    2.6037    7.3861    5.6992 H   0  0  0  0  0  0  0  0  0  0  0  0
    3.0852    5.7161    5.3513 H   0  0  0  0  0  0  0  0  0  0  0  0
   -1.5873    8.0690    6.9455 H   0  0  0  0  0  0  0  0  0  0  0  0
   -3.6599    7.4851    8.0598 H   0  0  0  0  0  0  0  0  0  0  0  0
   -3.7683    8.4855   15.1042 H   0  0  0  0  0  0  0  0  0  0  0  0
   -2.2576    9.2113   16.8575 H   0  0  0  0  0  0  0  0  0  0  0  0
   -1.5331    7.6317   18.5498 H   0  0  0  0  0  0  0  0  0  0  0  0
   -6.3086    6.1408   17.0432 H   0  0  0  0  0  0  0  0  0  0  0  0
   -8.7583    5.2883   16.7742 H   0  0  0  0  0  0  0  0  0  0  0  0
   -6.8967    5.0805   13.0832 H   0  0  0  0  0  0  0  0  0  0  0  0
  -10.5148    2.1732   14.9386 H   0  0  0  0  0  0  0  0  0  0  0  0
  -12.4270    1.8067   16.3854 H   0  0  0  0  0  0  0  0  0  0  0  0
  -13.5987    3.7061   17.3363 H   0  0  0  0  0  0  0  0  0  0  0  0
  -10.8460    4.8365    8.1560 H   0  0  0  0  0  0  0  0  0  0  0  0
  -12.2159    3.9897    6.3417 H   0  0  0  0  0  0  0  0  0  0  0  0
  -11.5653    1.9575    5.1878 H   0  0  0  0  0  0  0  0  0  0  0  0
   -7.1984    3.9807    6.8019 H   0  0  0  0  0  0  0  0  0  0  0  0
   -4.8171    4.8292    7.0685 H   0  0  0  0  0  0  0  0  0  0  0  0
   -6.6205    4.8932   10.8145 H   0  0  0  0  0  0  0  0  0  0  0  0
  -11.1968    2.8861   10.1973 H   0  0  0  0  0  0  0  0  0  0  0  0
  -11.6426    3.4683   12.6504 H   0  0  0  0  0  0  0  0  0  0  0  0
   -2.1488    6.5594   13.6966 H   0  0  0  0  0  0  0  0  0  0  0  0
   -1.8177    6.4214   11.1620 H   0  0  0  0  0  0  0  0  0  0  0  0
   -1.9148    3.8886    9.3920 H   0  0  0  0  0  0  0  0  0  0  0  0
    0.1594    4.4639    8.2544 H   0  0  0  0  0  0  0  0  0  0  0  0
    0.6463    3.1629    3.9582 H   0  0  0  0  0  0  0  0  0  0  0  0
    2.2555    3.4148    3.4853 H   0  0  0  0  0  0  0  0  0  0  0  0
  1  2  1  0  0  0  0
  1 83  1  0  0  0  0
  1 84  1  0  0  0  0
  1 85  1  0  0  0  0
  2  3  1  0  0  0  0
  2 86  1  0  0  0  0
  2 87  1  0  0  0  0
  3  4  1  0  0  0  0
  3 81  1  0  0  0  0
  4  5  1  0  0  0  0
  4 88  1  0  0  0  0
  4 89  1  0  0  0  0
  5  6  1  0  0  0  0
  5 80  1  0  0  0  0
  5 90  1  6  0  0  0
  6  7  2  0  0  0  0
  6  8  1  0  0  0  0
  8  9  1  0  0  0  0
  9 10  1  0  0  0  0
  9 91  1  0  0  0  0
  9 92  1  0  0  0  0
 10 11  1  0  0  0  0
 10 93  1  0  0  0  0
 10 94  1  0  0  0  0
 11 12  1  0  0  0  0
 12 13  1  0  0  0  0
 12 95  1  0  0  0  0
 12 96  1  0  0  0  0
 13 14  1  0  0  0  0
 13 97  1  0  0  0  0
 13 98  1  0  0  0  0
 14 15  1  0  0  0  0
 15 16  2  0  0  0  0
 15 17  1  0  0  0  0
 17 18  1  0  0  0  0
 17 79  2  0  0  0  0
 18 19  2  0  0  0  0
 18 99  1  0  0  0  0
 19 20  1  0  0  0  0
 19100  1  0  0  0  0
 20 21  1  0  0  0  0
 20 78  2  0  0  0  0
 21 22  1  0  0  0  0
 21 72  2  0  0  0  0
 22 23  2  0  0  0  0
 22 77  1  0  0  0  0
 23 24  1  0  0  0  0
 24 25  2  0  0  0  0
 24 76  1  0  0  0  0
 25 26  1  0  0  0  0
 25 37  1  0  0  0  0
 26 27  1  0  0  0  0
 26 35  2  0  0  0  0
 27 28  2  0  0  0  0
 27101  1  0  0  0  0
 28 29  1  0  0  0  0
 28102  1  0  0  0  0
 29 30  2  0  0  0  0
 29103  1  0  0  0  0
 30 31  1  0  0  0  0
 30 35  1  0  0  0  0
 31 32  2  0  0  0  0
 31 33  2  0  0  0  0
 31 34  1  0  0  0  0
 35 36  1  0  0  0  0
 37 38  2  0  0  0  0
 37 41  1  0  0  0  0
 38 39  1  0  0  0  0
 38104  1  0  0  0  0
 39 40  2  0  0  0  0
 39105  1  0  0  0  0
 40 41  1  0  0  0  0
 40 42  1  0  0  0  0
 41106  1  0  0  0  0
 42 43  1  0  0  0  0
 42 54  2  0  0  0  0
 43 44  1  0  0  0  0
 43 52  2  0  0  0  0
 44 45  2  0  0  0  0
 44107  1  0  0  0  0
 45 46  1  0  0  0  0
 45108  1  0  0  0  0
 46 47  2  0  0  0  0
 46109  1  0  0  0  0
 47 48  1  0  0  0  0
 47 52  1  0  0  0  0
 48 49  2  0  0  0  0
 48 50  2  0  0  0  0
 48 51  1  0  0  0  0
 52 53  1  0  0  0  0
 54 55  1  0  0  0  0
 54 75  1  0  0  0  0
 55 56  2  0  0  0  0
 56 57  1  0  0  0  0
 56 74  1  0  0  0  0
 57 58  1  0  0  0  0
 57 69  2  0  0  0  0
 58 59  1  0  0  0  0
 58 67  2  0  0  0  0
 59 60  2  0  0  0  0
 59110  1  0  0  0  0
 60 61  1  0  0  0  0
 60111  1  0  0  0  0
 61 62  2  0  0  0  0
 61112  1  0  0  0  0
 62 63  1  0  0  0  0
 62 67  1  0  0  0  0
 63 64  2  0  0  0  0
 63 65  2  0  0  0  0
 63 66  1  0  0  0  0
 67 68  1  0  0  0  0
 69 70  1  0  0  0  0
 69 73  1  0  0  0  0
 70 71  2  0  0  0  0
 70113  1  0  0  0  0
 71 72  1  0  0  0  0
 71114  1  0  0  0  0
 72 73  1  0  0  0  0
 73115  1  0  0  0  0
 74 75  2  0  0  0  0
 74116  1  0  0  0  0
 75117  1  0  0  0  0
 76 77  2  0  0  0  0
 76118  1  0  0  0  0
 77119  1  0  0  0  0
 78 79  1  0  0  0  0
 78120  1  0  0  0  0
 79121  1  0  0  0  0
 80 81  1  0  0  0  0
 80122  1  0  0  0  0
 80123  1  0  0  0  0
 81 82  2  0  0  0  0
M  CHG  3  34  -1  51  -1  66  -1
M  END
$$$$
