6_4_7647
 OpenBabel04152301373D

128138  0  0  1  0  0  0  0  0999 V2000
   -1.8091    0.3453    0.9133 O   0  0  0  0  0  0  0  0  0  0  0  0
   -0.6072    0.3579    0.6905 C   0  0  0  0  0  0  0  0  0  0  0  0
    0.2711   -0.5769    1.1495 N   0  0  0  0  0  0  0  0  0  0  0  0
    1.5930   -0.3242    0.6937 C   0  0  0  0  0  0  0  0  0  0  0  0
    1.4281    0.9101   -0.1731 C   0  0  1  0  0  0  0  0  0  0  0  0
    1.9119    0.7761   -1.6294 C   0  0  0  0  0  0  0  0  0  0  0  0
    0.7554    0.1983   -2.9463 S   0  0  0  0  0  0  0  0  0  0  0  0
    0.7967   -1.5789   -2.8234 C   0  0  0  0  0  0  0  0  0  0  0  0
    0.2105   -2.1999   -1.7265 C   0  0  0  0  0  0  0  0  0  0  0  0
    0.2074   -3.5736   -1.6384 C   0  0  0  0  0  0  0  0  0  0  0  0
    0.6466   -4.3602   -2.6237 N   0  0  0  0  0  0  0  0  0  0  0  0
    1.0842   -3.7535   -3.7610 C   0  0  0  0  0  0  0  0  0  0  0  0
    1.3201   -4.7127   -4.8802 C   0  0  0  0  0  0  0  0  0  0  0  0
    0.7387   -5.7850   -4.9638 O   0  0  0  0  0  0  0  0  0  0  0  0
    2.3343   -4.2923   -5.6792 O   0  0  0  0  0  0  0  0  0  0  0  0
    2.8322   -5.3096   -6.5632 C   0  0  0  0  0  0  0  0  0  0  0  0
    4.2298   -5.7807   -6.1535 C   0  0  0  0  0  0  0  0  0  0  0  0
    4.3932   -6.3482   -4.8554 O   0  0  0  0  0  0  0  0  0  0  0  0
    4.4029   -5.4722   -3.7292 C   0  0  0  0  0  0  0  0  0  0  0  0
    5.6358   -4.5845   -3.5110 C   0  0  0  0  0  0  0  0  0  0  0  0
    5.8355   -3.6301   -4.5671 O   0  0  0  0  0  0  0  0  0  0  0  0
    6.8791   -3.9205   -5.3840 C   0  0  0  0  0  0  0  0  0  0  0  0
    7.6689   -4.8429   -5.2662 O   0  0  0  0  0  0  0  0  0  0  0  0
    6.8361   -3.0732   -6.5897 C   0  0  0  0  0  0  0  0  0  0  0  0
    6.8523   -3.7241   -7.8306 C   0  0  0  0  0  0  0  0  0  0  0  0
    7.0131   -2.9891   -8.9990 C   0  0  0  0  0  0  0  0  0  0  0  0
    7.1817   -1.6011   -8.9285 C   0  0  0  0  0  0  0  0  0  0  0  0
    7.6921   -0.8862  -10.1232 C   0  0  0  0  0  0  0  0  0  0  0  0
    9.1477   -0.4998  -10.1694 C   0  0  0  0  0  0  0  0  0  0  0  0
    9.8169    0.0975  -11.1202 N   0  0  0  0  0  0  0  0  0  0  0  0
   11.1122    0.2460  -10.6372 C   0  0  0  0  0  0  0  0  0  0  0  0
   12.1947    0.7753  -11.2551 C   0  0  0  0  0  0  0  0  0  0  0  0
   13.4930    0.8013  -10.4896 C   0  0  0  0  0  0  0  0  0  0  0  0
   14.1828   -0.4007  -10.2283 C   0  0  0  0  0  0  0  0  0  0  0  0
   15.3868   -0.3907   -9.5242 C   0  0  0  0  0  0  0  0  0  0  0  0
   15.9383    0.8238   -9.1253 C   0  0  0  0  0  0  0  0  0  0  0  0
   15.2767    2.0295   -9.4095 C   0  0  0  0  0  0  0  0  0  0  0  0
   16.1087    3.5464   -8.9278 S   0  0  0  0  0  0  0  0  0  0  0  0
   16.0082    3.4876   -7.4700 O   0  0  0  0  0  0  0  0  0  0  0  0
   17.4573    3.3366   -9.4549 O   0  0  0  0  0  0  0  0  0  0  0  0
   15.3698    4.6300   -9.5601 O   0  5  0  0  0  0  0  0  0  0  0  0
   14.0518    2.0229  -10.0657 C   0  0  0  0  0  0  0  0  0  0  0  0
   13.3709    3.1532  -10.3019 F   0  0  0  0  0  0  0  0  0  0  0  0
   12.1786    1.3024  -12.5928 C   0  0  0  0  0  0  0  0  0  0  0  0
   13.2300    1.8248  -13.3251 C   0  0  0  0  0  0  0  0  0  0  0  0
   12.7311    2.2573  -14.5584 C   0  0  0  0  0  0  0  0  0  0  0  0
   11.3798    1.9564  -14.6144 C   0  0  0  0  0  0  0  0  0  0  0  0
   11.0523    1.3852  -13.3967 N   0  0  0  0  0  0  0  0  0  0  0  0
   10.4571    2.1728  -15.6994 C   0  0  0  0  0  0  0  0  0  0  0  0
   11.0056    2.7366  -16.9865 C   0  0  0  0  0  0  0  0  0  0  0  0
   10.6731    4.0442  -17.3932 C   0  0  0  0  0  0  0  0  0  0  0  0
   11.1685    4.5623  -18.5900 C   0  0  0  0  0  0  0  0  0  0  0  0
   12.0520    3.8044  -19.3551 C   0  0  0  0  0  0  0  0  0  0  0  0
   12.4264    2.5182  -18.9359 C   0  0  0  0  0  0  0  0  0  0  0  0
   13.6508    1.6514  -19.9235 S   0  0  0  0  0  0  0  0  0  0  0  0
   12.8574    1.2237  -21.0741 O   0  0  0  0  0  0  0  0  0  0  0  0
   14.6226    2.7073  -20.2112 O   0  0  0  0  0  0  0  0  0  0  0  0
   14.1600    0.5799  -19.0781 O   0  5  0  0  0  0  0  0  0  0  0  0
   11.8908    1.9742  -17.7751 C   0  0  0  0  0  0  0  0  0  0  0  0
   12.1846    0.7255  -17.3838 F   0  0  0  0  0  0  0  0  0  0  0  0
    9.1301    1.8946  -15.6511 C   0  0  0  0  0  0  0  0  0  0  0  0
    8.3879    1.3266  -14.6206 N   0  0  0  0  0  0  0  0  0  0  0  0
    7.1496    1.2836  -15.0498 C   0  0  0  0  0  0  0  0  0  0  0  0
    5.9323    0.6933  -14.3871 C   0  0  0  0  0  0  0  0  0  0  0  0
    4.6056    0.7254  -15.0639 C   0  0  0  0  0  0  0  0  0  0  0  0
    4.3998   -0.0234  -16.2389 C   0  0  0  0  0  0  0  0  0  0  0  0
    3.1750    0.0238  -16.9057 C   0  0  0  0  0  0  0  0  0  0  0  0
    2.1292    0.7724  -16.3722 C   0  0  0  0  0  0  0  0  0  0  0  0
    2.3119    1.4903  -15.1801 C   0  0  0  0  0  0  0  0  0  0  0  0
    0.8745    2.3222  -14.4980 S   0  0  0  0  0  0  0  0  0  0  0  0
    0.6578    3.3900  -15.4708 O   0  0  0  0  0  0  0  0  0  0  0  0
   -0.1259    1.2547  -14.5192 O   0  0  0  0  0  0  0  0  0  0  0  0
    1.2651    2.7548  -13.1632 O   0  5  0  0  0  0  0  0  0  0  0  0
    3.5466    1.4937  -14.5438 C   0  0  0  0  0  0  0  0  0  0  0  0
    3.7679    2.2073  -13.4309 F   0  0  0  0  0  0  0  0  0  0  0  0
    6.0613    0.1010  -13.1838 C   0  0  0  0  0  0  0  0  0  0  0  0
    4.9894   -0.5508  -12.4342 C   0  0  0  0  0  0  0  0  0  0  0  0
    5.4707   -0.9722  -11.2522 C   0  0  0  0  0  0  0  0  0  0  0  0
    6.8913   -0.6367  -11.1737 C   0  0  0  0  0  0  0  0  0  0  0  0
    7.1631   -0.0308  -12.3737 N   0  0  0  0  0  0  0  0  0  0  0  0
    6.9579    1.8673  -16.3851 C   0  0  0  0  0  0  0  0  0  0  0  0
    8.2027    2.1641  -16.7306 C   0  0  0  0  0  0  0  0  0  0  0  0
   11.1309   -0.3042   -9.3001 C   0  0  0  0  0  0  0  0  0  0  0  0
    9.9567   -0.8277   -8.9828 C   0  0  0  0  0  0  0  0  0  0  0  0
    7.0586   -0.9439   -7.6899 C   0  0  0  0  0  0  0  0  0  0  0  0
    6.8924   -1.6812   -6.5131 C   0  0  0  0  0  0  0  0  0  0  0  0
    1.2316   -2.3743   -3.8863 C   0  0  0  0  0  0  0  0  0  0  0  0
    0.0411    1.2777   -0.0729 O   0  0  0  0  0  0  0  0  0  0  0  0
    0.0207   -1.3345    1.7262 H   0  0  0  0  0  0  0  0  0  0  0  0
    1.9662   -1.1480    0.1219 H   0  0  0  0  0  0  0  0  0  0  0  0
    2.2938   -0.1879    1.4907 H   0  0  0  0  0  0  0  0  0  0  0  0
    2.0752    1.6807    0.1907 H   0  0  0  0  0  0  0  0  0  0  0  0
    2.7328    0.0899   -1.6186 H   0  0  0  0  0  0  0  0  0  0  0  0
    2.1144    1.7882   -1.9116 H   0  0  0  0  0  0  0  0  0  0  0  0
   -0.2212   -1.6326   -0.9803 H   0  0  0  0  0  0  0  0  0  0  0  0
   -0.1490   -4.0134   -0.7755 H   0  0  0  0  0  0  0  0  0  0  0  0
    2.8768   -4.9144   -7.5566 H   0  0  0  0  0  0  0  0  0  0  0  0
    2.1695   -6.1482   -6.5137 H   0  0  0  0  0  0  0  0  0  0  0  0
    4.8812   -4.9340   -6.2145 H   0  0  0  0  0  0  0  0  0  0  0  0
    4.4474   -6.5848   -6.8251 H   0  0  0  0  0  0  0  0  0  0  0  0
    4.2898   -6.0785   -2.8548 H   0  0  0  0  0  0  0  0  0  0  0  0
    3.6099   -4.7809   -3.9244 H   0  0  0  0  0  0  0  0  0  0  0  0
    6.5007   -5.2114   -3.4501 H   0  0  0  0  0  0  0  0  0  0  0  0
    5.4772   -4.0333   -2.6077 H   0  0  0  0  0  0  0  0  0  0  0  0
    6.7448   -4.7494   -7.8768 H   0  0  0  0  0  0  0  0  0  0  0  0
    7.0082   -3.4645   -9.9149 H   0  0  0  0  0  0  0  0  0  0  0  0
   13.7930   -1.2964  -10.5613 H   0  0  0  0  0  0  0  0  0  0  0  0
   15.8654   -1.2772   -9.3005 H   0  0  0  0  0  0  0  0  0  0  0  0
   16.8372    0.8381   -8.6186 H   0  0  0  0  0  0  0  0  0  0  0  0
   14.2125    1.8850  -13.0150 H   0  0  0  0  0  0  0  0  0  0  0  0
   13.2771    2.7218  -15.3008 H   0  0  0  0  0  0  0  0  0  0  0  0
   10.1516    1.0822  -13.1394 H   0  0  0  0  0  0  0  0  0  0  0  0
   10.0579    4.6234  -16.8007 H   0  0  0  0  0  0  0  0  0  0  0  0
   10.8820    5.5018  -18.9067 H   0  0  0  0  0  0  0  0  0  0  0  0
   12.4327    4.1900  -20.2334 H   0  0  0  0  0  0  0  0  0  0  0  0
    5.1617   -0.6123  -16.6100 H   0  0  0  0  0  0  0  0  0  0  0  0
    3.0450   -0.4932  -17.7893 H   0  0  0  0  0  0  0  0  0  0  0  0
    1.2173    0.7994  -16.8546 H   0  0  0  0  0  0  0  0  0  0  0  0
    4.0175   -0.6687  -12.7605 H   0  0  0  0  0  0  0  0  0  0  0  0
    4.9263   -1.4539  -10.5197 H   0  0  0  0  0  0  0  0  0  0  0  0
    8.0615    0.2799  -12.6300 H   0  0  0  0  0  0  0  0  0  0  0  0
    6.0835    2.0089  -16.9147 H   0  0  0  0  0  0  0  0  0  0  0  0
    8.4764    2.5396  -17.6520 H   0  0  0  0  0  0  0  0  0  0  0  0
   11.9519   -0.2907   -8.6749 H   0  0  0  0  0  0  0  0  0  0  0  0
    9.6803   -1.3337   -8.1269 H   0  0  0  0  0  0  0  0  0  0  0  0
    7.0911    0.0868   -7.6499 H   0  0  0  0  0  0  0  0  0  0  0  0
    6.8126   -1.2030   -5.6021 H   0  0  0  0  0  0  0  0  0  0  0  0
    1.6468   -1.9553   -4.7331 H   0  0  0  0  0  0  0  0  0  0  0  0
  1  2  2  0  0  0  0
  2  3  1  0  0  0  0
  2 88  1  0  0  0  0
  3  4  1  0  0  0  0
  3 89  1  0  0  0  0
  4  5  1  0  0  0  0
  4 90  1  0  0  0  0
  4 91  1  0  0  0  0
  5 88  1  0  0  0  0
  5  6  1  0  0  0  0
  5 92  1  1  0  0  0
  6  7  1  0  0  0  0
  6 93  1  0  0  0  0
  6 94  1  0  0  0  0
  7  8  1  0  0  0  0
  8  9  1  0  0  0  0
  8 87  2  0  0  0  0
  9 10  2  0  0  0  0
  9 95  1  0  0  0  0
 10 11  1  0  0  0  0
 10 96  1  0  0  0  0
 11 12  2  0  0  0  0
 12 13  1  0  0  0  0
 12 87  1  0  0  0  0
 13 14  2  0  0  0  0
 13 15  1  0  0  0  0
 15 16  1  0  0  0  0
 16 17  1  0  0  0  0
 16 97  1  0  0  0  0
 16 98  1  0  0  0  0
 17 18  1  0  0  0  0
 17 99  1  0  0  0  0
 17100  1  0  0  0  0
 18 19  1  0  0  0  0
 19 20  1  0  0  0  0
 19101  1  0  0  0  0
 19102  1  0  0  0  0
 20 21  1  0  0  0  0
 20103  1  0  0  0  0
 20104  1  0  0  0  0
 21 22  1  0  0  0  0
 22 23  2  0  0  0  0
 22 24  1  0  0  0  0
 24 25  1  0  0  0  0
 24 86  2  0  0  0  0
 25 26  2  0  0  0  0
 25105  1  0  0  0  0
 26 27  1  0  0  0  0
 26106  1  0  0  0  0
 27 28  1  0  0  0  0
 27 85  2  0  0  0  0
 28 29  1  0  0  0  0
 28 79  2  0  0  0  0
 29 30  2  0  0  0  0
 29 84  1  0  0  0  0
 30 31  1  0  0  0  0
 31 32  2  0  0  0  0
 31 83  1  0  0  0  0
 32 33  1  0  0  0  0
 32 44  1  0  0  0  0
 33 34  1  0  0  0  0
 33 42  2  0  0  0  0
 34 35  2  0  0  0  0
 34107  1  0  0  0  0
 35 36  1  0  0  0  0
 35108  1  0  0  0  0
 36 37  2  0  0  0  0
 36109  1  0  0  0  0
 37 38  1  0  0  0  0
 37 42  1  0  0  0  0
 38 39  2  0  0  0  0
 38 40  2  0  0  0  0
 38 41  1  0  0  0  0
 42 43  1  0  0  0  0
 44 45  2  0  0  0  0
 44 48  1  0  0  0  0
 45 46  1  0  0  0  0
 45110  1  0  0  0  0
 46 47  2  0  0  0  0
 46111  1  0  0  0  0
 47 48  1  0  0  0  0
 47 49  1  0  0  0  0
 48112  1  0  0  0  0
 49 50  1  0  0  0  0
 49 61  2  0  0  0  0
 50 51  1  0  0  0  0
 50 59  2  0  0  0  0
 51 52  2  0  0  0  0
 51113  1  0  0  0  0
 52 53  1  0  0  0  0
 52114  1  0  0  0  0
 53 54  2  0  0  0  0
 53115  1  0  0  0  0
 54 55  1  0  0  0  0
 54 59  1  0  0  0  0
 55 56  2  0  0  0  0
 55 57  2  0  0  0  0
 55 58  1  0  0  0  0
 59 60  1  0  0  0  0
 61 62  1  0  0  0  0
 61 82  1  0  0  0  0
 62 63  2  0  0  0  0
 63 64  1  0  0  0  0
 63 81  1  0  0  0  0
 64 65  1  0  0  0  0
 64 76  2  0  0  0  0
 65 66  1  0  0  0  0
 65 74  2  0  0  0  0
 66 67  2  0  0  0  0
 66116  1  0  0  0  0
 67 68  1  0  0  0  0
 67117  1  0  0  0  0
 68 69  2  0  0  0  0
 68118  1  0  0  0  0
 69 70  1  0  0  0  0
 69 74  1  0  0  0  0
 70 71  2  0  0  0  0
 70 72  2  0  0  0  0
 70 73  1  0  0  0  0
 74 75  1  0  0  0  0
 76 77  1  0  0  0  0
 76 80  1  0  0  0  0
 77 78  2  0  0  0  0
 77119  1  0  0  0  0
 78 79  1  0  0  0  0
 78120  1  0  0  0  0
 79 80  1  0  0  0  0
 80121  1  0  0  0  0
 81 82  2  0  0  0  0
 81122  1  0  0  0  0
 82123  1  0  0  0  0
 83 84  2  0  0  0  0
 83124  1  0  0  0  0
 84125  1  0  0  0  0
 85 86  1  0  0  0  0
 85126  1  0  0  0  0
 86127  1  0  0  0  0
 87128  1  0  0  0  0
M  CHG  3  41  -1  58  -1  73  -1
M  END
$$$$
