6_4_8514
 OpenBabel04152301373D

141151  0  0  0  0  0  0  0  0999 V2000
    1.1170    1.1307    0.1068 O   0  0  0  0  0  0  0  0  0  0  0  0
    2.0991    0.4786    0.4490 C   0  0  0  0  0  0  0  0  0  0  0  0
    3.0754    1.0644    1.4591 C   0  0  0  0  0  0  0  0  0  0  0  0
    3.4329    0.1413    2.6193 C   0  0  0  0  0  0  0  0  0  0  0  0
    4.7633   -0.5545    2.4351 C   0  0  0  0  0  0  0  0  0  0  0  0
    5.7735   -0.2731    3.0617 O   0  0  0  0  0  0  0  0  0  0  0  0
    4.6687   -1.5143    1.4733 O   0  0  0  0  0  0  0  0  0  0  0  0
    5.8587   -2.2844    1.1851 C   0  0  0  0  0  0  0  0  0  0  0  0
    6.3278   -2.0348   -0.2512 C   0  0  0  0  0  0  0  0  0  0  0  0
    7.0658   -0.8207   -0.4144 O   0  0  0  0  0  0  0  0  0  0  0  0
    6.2802    0.3553   -0.5923 C   0  0  0  0  0  0  0  0  0  0  0  0
    5.9291    0.6859   -2.0459 C   0  0  0  0  0  0  0  0  0  0  0  0
    5.0674   -0.3118   -2.6191 O   0  0  0  0  0  0  0  0  0  0  0  0
    5.6931   -1.2349   -3.3904 C   0  0  0  0  0  0  0  0  0  0  0  0
    6.8791   -1.2665   -3.6795 O   0  0  0  0  0  0  0  0  0  0  0  0
    4.7544   -2.3215   -3.7382 C   0  0  0  0  0  0  0  0  0  0  0  0
    5.2052   -3.6475   -3.6611 C   0  0  0  0  0  0  0  0  0  0  0  0
    4.3854   -4.7049   -4.0776 C   0  0  0  0  0  0  0  0  0  0  0  0
    3.1086   -4.4444   -4.5838 C   0  0  0  0  0  0  0  0  0  0  0  0
    2.2680   -5.4964   -5.2321 C   0  0  0  0  0  0  0  0  0  0  0  0
    1.9663   -5.3537   -6.7042 C   0  0  0  0  0  0  0  0  0  0  0  0
    1.1001   -5.9965   -7.4413 N   0  0  0  0  0  0  0  0  0  0  0  0
    1.2185   -5.4621   -8.7183 C   0  0  0  0  0  0  0  0  0  0  0  0
    0.6203   -5.8609   -9.8645 C   0  0  0  0  0  0  0  0  0  0  0  0
    0.9837   -5.1441  -11.1358 C   0  0  0  0  0  0  0  0  0  0  0  0
    2.2489   -5.3658  -11.7170 C   0  0  0  0  0  0  0  0  0  0  0  0
    2.5879   -4.7657  -12.9277 C   0  0  0  0  0  0  0  0  0  0  0  0
    1.6485   -3.9787  -13.5882 C   0  0  0  0  0  0  0  0  0  0  0  0
    0.3768   -3.7698  -13.0281 C   0  0  0  0  0  0  0  0  0  0  0  0
   -0.7866   -2.8058  -13.9984 S   0  0  0  0  0  0  0  0  0  0  0  0
   -0.1855   -1.4738  -13.9390 O   0  0  0  0  0  0  0  0  0  0  0  0
   -0.7050   -3.4544  -15.3071 O   0  0  0  0  0  0  0  0  0  0  0  0
   -2.0739   -2.9366  -13.3309 O   0  5  0  0  0  0  0  0  0  0  0  0
    0.0478   -4.3290  -11.7995 C   0  0  0  0  0  0  0  0  0  0  0  0
   -1.1414   -4.1178  -11.2179 F   0  0  0  0  0  0  0  0  0  0  0  0
   -0.2772   -6.9773   -9.9590 C   0  0  0  0  0  0  0  0  0  0  0  0
   -0.8307   -7.5387  -11.0962 C   0  0  0  0  0  0  0  0  0  0  0  0
   -1.6559   -8.5957  -10.7026 C   0  0  0  0  0  0  0  0  0  0  0  0
   -1.5978   -8.7028   -9.3229 C   0  0  0  0  0  0  0  0  0  0  0  0
   -0.7511   -7.7031   -8.8804 N   0  0  0  0  0  0  0  0  0  0  0  0
   -2.2832   -9.6348   -8.4676 C   0  0  0  0  0  0  0  0  0  0  0  0
   -3.1476  -10.6713   -9.1323 C   0  0  0  0  0  0  0  0  0  0  0  0
   -4.5487  -10.5460   -9.1111 C   0  0  0  0  0  0  0  0  0  0  0  0
   -5.3482  -11.4507   -9.8095 C   0  0  0  0  0  0  0  0  0  0  0  0
   -4.7521  -12.4547  -10.5709 C   0  0  0  0  0  0  0  0  0  0  0  0
   -3.3542  -12.5767  -10.6126 C   0  0  0  0  0  0  0  0  0  0  0  0
   -2.6696  -13.8298  -11.7035 S   0  0  0  0  0  0  0  0  0  0  0  0
   -2.9855  -15.0604  -10.9802 O   0  0  0  0  0  0  0  0  0  0  0  0
   -3.4414  -13.6281  -12.9302 O   0  0  0  0  0  0  0  0  0  0  0  0
   -1.2503  -13.5256  -11.8267 O   0  5  0  0  0  0  0  0  0  0  0  0
   -2.5541  -11.7100   -9.8795 C   0  0  0  0  0  0  0  0  0  0  0  0
   -1.2175  -11.8211   -9.8699 F   0  0  0  0  0  0  0  0  0  0  0  0
   -2.1972   -9.6374   -7.1158 C   0  0  0  0  0  0  0  0  0  0  0  0
   -1.3875   -8.8587   -6.2959 N   0  0  0  0  0  0  0  0  0  0  0  0
   -1.6237   -9.2637   -5.0726 C   0  0  0  0  0  0  0  0  0  0  0  0
   -0.9223   -8.8841   -3.7959 C   0  0  0  0  0  0  0  0  0  0  0  0
   -1.3762   -9.4724   -2.5009 C   0  0  0  0  0  0  0  0  0  0  0  0
   -1.0419  -10.8066   -2.1991 C   0  0  0  0  0  0  0  0  0  0  0  0
   -1.5169  -11.4138   -1.0349 C   0  0  0  0  0  0  0  0  0  0  0  0
   -2.2829  -10.6774   -0.1353 C   0  0  0  0  0  0  0  0  0  0  0  0
   -2.6036   -9.3401   -0.4119 C   0  0  0  0  0  0  0  0  0  0  0  0
   -3.5365   -8.4528    0.8446 S   0  0  0  0  0  0  0  0  0  0  0  0
   -4.8640   -9.0482    0.7083 O   0  0  0  0  0  0  0  0  0  0  0  0
   -2.8238   -8.8234    2.0692 O   0  0  0  0  0  0  0  0  0  0  0  0
   -3.4430   -7.0420    0.4995 O   0  5  0  0  0  0  0  0  0  0  0  0
   -2.1846   -8.7501   -1.6003 C   0  0  0  0  0  0  0  0  0  0  0  0
   -2.6015   -7.5310   -1.9550 F   0  0  0  0  0  0  0  0  0  0  0  0
    0.1651   -8.0863   -3.8576 C   0  0  0  0  0  0  0  0  0  0  0  0
    1.0134   -7.7242   -2.7274 C   0  0  0  0  0  0  0  0  0  0  0  0
    1.9192   -6.8139   -3.1307 C   0  0  0  0  0  0  0  0  0  0  0  0
    1.6960   -6.5045   -4.5404 C   0  0  0  0  0  0  0  0  0  0  0  0
    0.7276   -7.4084   -4.9214 N   0  0  0  0  0  0  0  0  0  0  0  0
   -2.6828  -10.2807   -4.9726 C   0  0  0  0  0  0  0  0  0  0  0  0
   -2.9564  -10.5130   -6.2497 C   0  0  0  0  0  0  0  0  0  0  0  0
    2.1908   -4.3950   -8.6447 C   0  0  0  0  0  0  0  0  0  0  0  0
    2.7426   -4.3398   -7.4418 C   0  0  0  0  0  0  0  0  0  0  0  0
    2.6583   -3.1069   -4.6092 C   0  0  0  0  0  0  0  0  0  0  0  0
    3.4685   -2.0479   -4.1931 C   0  0  0  0  0  0  0  0  0  0  0  0
    2.4513   -0.7685   -0.0190 N   0  0  0  0  0  0  0  0  0  0  0  0
    1.7002   -1.5895   -0.8792 C   0  0  0  0  0  0  0  0  0  0  0  0
    1.9911   -2.9537   -0.8407 C   0  0  0  0  0  0  0  0  0  0  0  0
    1.1630   -3.8553   -1.5028 C   0  0  0  0  0  0  0  0  0  0  0  0
    0.0865   -3.4127   -2.2820 C   0  0  0  0  0  0  0  0  0  0  0  0
   -0.8958   -4.4280   -2.7276 C   0  0  0  0  0  0  0  0  0  0  0  0
   -1.0331   -5.3822   -1.9662 O   0  0  0  0  0  0  0  0  0  0  0  0
   -1.6800   -4.2459   -3.8512 N   0  0  0  0  0  0  0  0  0  0  0  0
   -1.4134   -3.4451   -5.0427 C   0  0  0  0  0  0  0  0  0  0  0  0
   -2.5565   -2.4488   -5.2894 C   0  0  0  0  0  0  0  0  0  0  0  0
   -3.8532   -3.0673   -5.2514 O   0  0  0  0  0  0  0  0  0  0  0  0
   -4.0478   -3.8216   -4.0387 C   0  0  0  0  0  0  0  0  0  0  0  0
   -2.9809   -4.9100   -3.8971 C   0  0  0  0  0  0  0  0  0  0  0  0
   -0.1579   -2.0432   -2.3752 C   0  0  0  0  0  0  0  0  0  0  0  0
    0.6489   -1.1350   -1.6775 C   0  0  0  0  0  0  0  0  0  0  0  0
    2.6400    1.9538    1.8644 H   0  0  0  0  0  0  0  0  0  0  0  0
    3.9862    1.2423    0.9265 H   0  0  0  0  0  0  0  0  0  0  0  0
    2.6692   -0.6026    2.7105 H   0  0  0  0  0  0  0  0  0  0  0  0
    3.5085    0.7473    3.4979 H   0  0  0  0  0  0  0  0  0  0  0  0
    5.6425   -3.3250    1.3086 H   0  0  0  0  0  0  0  0  0  0  0  0
    6.6347   -1.9850    1.8583 H   0  0  0  0  0  0  0  0  0  0  0  0
    5.4667   -1.9940   -0.8851 H   0  0  0  0  0  0  0  0  0  0  0  0
    6.9873   -2.8374   -0.5076 H   0  0  0  0  0  0  0  0  0  0  0  0
    6.8241    1.1823   -0.1859 H   0  0  0  0  0  0  0  0  0  0  0  0
    5.3509    0.1720   -0.0947 H   0  0  0  0  0  0  0  0  0  0  0  0
    6.8314    0.7368   -2.6187 H   0  0  0  0  0  0  0  0  0  0  0  0
    5.4145    1.6239   -2.0623 H   0  0  0  0  0  0  0  0  0  0  0  0
    6.1491   -3.8462   -3.2943 H   0  0  0  0  0  0  0  0  0  0  0  0
    4.7247   -5.6772   -4.0106 H   0  0  0  0  0  0  0  0  0  0  0  0
    2.9300   -5.9781  -11.2413 H   0  0  0  0  0  0  0  0  0  0  0  0
    3.5276   -4.9034  -13.3316 H   0  0  0  0  0  0  0  0  0  0  0  0
    1.8874   -3.5463  -14.4943 H   0  0  0  0  0  0  0  0  0  0  0  0
   -0.6632   -7.2303  -12.0667 H   0  0  0  0  0  0  0  0  0  0  0  0
   -2.2132   -9.1941  -11.3322 H   0  0  0  0  0  0  0  0  0  0  0  0
   -0.5200   -7.5331   -7.9386 H   0  0  0  0  0  0  0  0  0  0  0  0
   -4.9874   -9.7804   -8.5758 H   0  0  0  0  0  0  0  0  0  0  0  0
   -6.3765  -11.3771   -9.7628 H   0  0  0  0  0  0  0  0  0  0  0  0
   -5.3412  -13.1114  -11.1064 H   0  0  0  0  0  0  0  0  0  0  0  0
   -0.4398  -11.3410   -2.8448 H   0  0  0  0  0  0  0  0  0  0  0  0
   -1.3011  -12.4044   -0.8421 H   0  0  0  0  0  0  0  0  0  0  0  0
   -2.6156  -11.1165    0.7373 H   0  0  0  0  0  0  0  0  0  0  0  0
    0.9321   -8.1050   -1.7717 H   0  0  0  0  0  0  0  0  0  0  0  0
    2.6552   -6.4000   -2.5374 H   0  0  0  0  0  0  0  0  0  0  0  0
    0.4633   -7.5560   -5.8582 H   0  0  0  0  0  0  0  0  0  0  0  0
   -3.1027  -10.7027   -4.1296 H   0  0  0  0  0  0  0  0  0  0  0  0
   -3.6243  -11.2260   -6.5823 H   0  0  0  0  0  0  0  0  0  0  0  0
    2.4239   -3.7610   -9.4249 H   0  0  0  0  0  0  0  0  0  0  0  0
    3.5150   -3.7425   -7.1076 H   0  0  0  0  0  0  0  0  0  0  0  0
    1.7033   -2.9057   -4.9447 H   0  0  0  0  0  0  0  0  0  0  0  0
    3.1186   -1.0775   -4.2227 H   0  0  0  0  0  0  0  0  0  0  0  0
    3.3200   -1.1221    0.2802 H   0  0  0  0  0  0  0  0  0  0  0  0
    2.8171   -3.2928   -0.3233 H   0  0  0  0  0  0  0  0  0  0  0  0
    1.3453   -4.8675   -1.4182 H   0  0  0  0  0  0  0  0  0  0  0  0
   -1.3225   -4.0932   -5.8892 H   0  0  0  0  0  0  0  0  0  0  0  0
   -0.5048   -2.8993   -4.8962 H   0  0  0  0  0  0  0  0  0  0  0  0
   -2.4189   -2.0024   -6.2520 H   0  0  0  0  0  0  0  0  0  0  0  0
   -2.5239   -1.7211   -4.5056 H   0  0  0  0  0  0  0  0  0  0  0  0
   -5.0147   -4.2793   -4.0619 H   0  0  0  0  0  0  0  0  0  0  0  0
   -3.9703   -3.1555   -3.2049 H   0  0  0  0  0  0  0  0  0  0  0  0
   -3.1408   -5.4633   -2.9953 H   0  0  0  0  0  0  0  0  0  0  0  0
   -3.0270   -5.5925   -4.7199 H   0  0  0  0  0  0  0  0  0  0  0  0
   -0.9351   -1.6977   -2.9596 H   0  0  0  0  0  0  0  0  0  0  0  0
    0.4647   -0.1225   -1.7542 H   0  0  0  0  0  0  0  0  0  0  0  0
  1  2  2  0  0  0  0
  2  3  1  0  0  0  0
  2 79  1  0  0  0  0
  3  4  1  0  0  0  0
  3 94  1  0  0  0  0
  3 95  1  0  0  0  0
  4  5  1  0  0  0  0
  4 96  1  0  0  0  0
  4 97  1  0  0  0  0
  5  6  2  0  0  0  0
  5  7  1  0  0  0  0
  7  8  1  0  0  0  0
  8  9  1  0  0  0  0
  8 98  1  0  0  0  0
  8 99  1  0  0  0  0
  9 10  1  0  0  0  0
  9100  1  0  0  0  0
  9101  1  0  0  0  0
 10 11  1  0  0  0  0
 11 12  1  0  0  0  0
 11102  1  0  0  0  0
 11103  1  0  0  0  0
 12 13  1  0  0  0  0
 12104  1  0  0  0  0
 12105  1  0  0  0  0
 13 14  1  0  0  0  0
 14 15  2  0  0  0  0
 14 16  1  0  0  0  0
 16 17  1  0  0  0  0
 16 78  2  0  0  0  0
 17 18  2  0  0  0  0
 17106  1  0  0  0  0
 18 19  1  0  0  0  0
 18107  1  0  0  0  0
 19 20  1  0  0  0  0
 19 77  2  0  0  0  0
 20 21  1  0  0  0  0
 20 71  2  0  0  0  0
 21 22  2  0  0  0  0
 21 76  1  0  0  0  0
 22 23  1  0  0  0  0
 23 24  2  0  0  0  0
 23 75  1  0  0  0  0
 24 25  1  0  0  0  0
 24 36  1  0  0  0  0
 25 26  1  0  0  0  0
 25 34  2  0  0  0  0
 26 27  2  0  0  0  0
 26108  1  0  0  0  0
 27 28  1  0  0  0  0
 27109  1  0  0  0  0
 28 29  2  0  0  0  0
 28110  1  0  0  0  0
 29 30  1  0  0  0  0
 29 34  1  0  0  0  0
 30 31  2  0  0  0  0
 30 32  2  0  0  0  0
 30 33  1  0  0  0  0
 34 35  1  0  0  0  0
 36 37  2  0  0  0  0
 36 40  1  0  0  0  0
 37 38  1  0  0  0  0
 37111  1  0  0  0  0
 38 39  2  0  0  0  0
 38112  1  0  0  0  0
 39 40  1  0  0  0  0
 39 41  1  0  0  0  0
 40113  1  0  0  0  0
 41 42  1  0  0  0  0
 41 53  2  0  0  0  0
 42 43  1  0  0  0  0
 42 51  2  0  0  0  0
 43 44  2  0  0  0  0
 43114  1  0  0  0  0
 44 45  1  0  0  0  0
 44115  1  0  0  0  0
 45 46  2  0  0  0  0
 45116  1  0  0  0  0
 46 47  1  0  0  0  0
 46 51  1  0  0  0  0
 47 48  2  0  0  0  0
 47 49  2  0  0  0  0
 47 50  1  0  0  0  0
 51 52  1  0  0  0  0
 53 54  1  0  0  0  0
 53 74  1  0  0  0  0
 54 55  2  0  0  0  0
 55 56  1  0  0  0  0
 55 73  1  0  0  0  0
 56 57  1  0  0  0  0
 56 68  2  0  0  0  0
 57 58  1  0  0  0  0
 57 66  2  0  0  0  0
 58 59  2  0  0  0  0
 58117  1  0  0  0  0
 59 60  1  0  0  0  0
 59118  1  0  0  0  0
 60 61  2  0  0  0  0
 60119  1  0  0  0  0
 61 62  1  0  0  0  0
 61 66  1  0  0  0  0
 62 63  2  0  0  0  0
 62 64  2  0  0  0  0
 62 65  1  0  0  0  0
 66 67  1  0  0  0  0
 68 69  1  0  0  0  0
 68 72  1  0  0  0  0
 69 70  2  0  0  0  0
 69120  1  0  0  0  0
 70 71  1  0  0  0  0
 70121  1  0  0  0  0
 71 72  1  0  0  0  0
 72122  1  0  0  0  0
 73 74  2  0  0  0  0
 73123  1  0  0  0  0
 74124  1  0  0  0  0
 75 76  2  0  0  0  0
 75125  1  0  0  0  0
 76126  1  0  0  0  0
 77 78  1  0  0  0  0
 77127  1  0  0  0  0
 78128  1  0  0  0  0
 79 80  1  0  0  0  0
 79129  1  0  0  0  0
 80 81  1  0  0  0  0
 80 93  2  0  0  0  0
 81 82  2  0  0  0  0
 81130  1  0  0  0  0
 82 83  1  0  0  0  0
 82131  1  0  0  0  0
 83 84  1  0  0  0  0
 83 92  2  0  0  0  0
 84 85  2  0  0  0  0
 84 86  1  0  0  0  0
 86 87  1  0  0  0  0
 86 91  1  0  0  0  0
 87 88  1  0  0  0  0
 87132  1  0  0  0  0
 87133  1  0  0  0  0
 88 89  1  0  0  0  0
 88134  1  0  0  0  0
 88135  1  0  0  0  0
 89 90  1  0  0  0  0
 90 91  1  0  0  0  0
 90136  1  0  0  0  0
 90137  1  0  0  0  0
 91138  1  0  0  0  0
 91139  1  0  0  0  0
 92 93  1  0  0  0  0
 92140  1  0  0  0  0
 93141  1  0  0  0  0
M  CHG  3  33  -1  50  -1  65  -1
M  END
$$$$
