6_4_5122
 OpenBabel04152301363D

143153  0  0  1  0  0  0  0  0999 V2000
   -0.7034    1.4234   -6.5211 C   0  0  0  0  0  0  0  0  0  0  0  0
   -1.6465    1.6894   -5.3362 C   0  0  0  0  0  0  0  0  0  0  0  0
   -2.8144    0.7037   -5.4632 C   0  0  0  0  0  0  0  0  0  0  0  0
   -0.8248    1.5206   -4.1494 N   0  3  0  0  0  0  0  0  0  0  0  0
   -1.2420    1.8821   -2.7686 C   0  0  2  0  0  0  0  0  0  0  0  0
   -0.5945    0.7313   -1.9089 C   0  0  0  0  0  0  0  0  0  0  0  0
   -0.5457   -0.4266   -2.3258 O   0  0  0  0  0  0  0  0  0  0  0  0
   -0.1364    1.1228   -0.6903 O   0  0  0  0  0  0  0  0  0  0  0  0
    0.5336    0.0972    0.0651 C   0  0  0  0  0  0  0  0  0  0  0  0
   -0.2854   -0.4028    1.2587 C   0  0  0  0  0  0  0  0  0  0  0  0
   -1.5379   -1.0331    0.9989 O   0  0  0  0  0  0  0  0  0  0  0  0
   -2.6189   -0.1992    0.5941 C   0  0  0  0  0  0  0  0  0  0  0  0
   -3.3040    0.6693    1.6573 C   0  0  0  0  0  0  0  0  0  0  0  0
   -2.4119    1.6072    2.2815 O   0  0  0  0  0  0  0  0  0  0  0  0
   -2.0860    1.3074    3.5632 C   0  0  0  0  0  0  0  0  0  0  0  0
   -2.4976    0.3661    4.2294 O   0  0  0  0  0  0  0  0  0  0  0  0
   -0.9761    2.1673    4.0068 C   0  0  0  0  0  0  0  0  0  0  0  0
    0.2133    1.5425    4.4067 C   0  0  0  0  0  0  0  0  0  0  0  0
    1.2763    2.3041    4.8866 C   0  0  0  0  0  0  0  0  0  0  0  0
    1.1474    3.6944    4.9907 C   0  0  0  0  0  0  0  0  0  0  0  0
    2.2170    4.4952    5.6333 C   0  0  0  0  0  0  0  0  0  0  0  0
    2.0132    5.0063    7.0318 C   0  0  0  0  0  0  0  0  0  0  0  0
    2.7799    5.7878    7.7451 N   0  0  0  0  0  0  0  0  0  0  0  0
    2.1087    5.9821    8.9461 C   0  0  0  0  0  0  0  0  0  0  0  0
    2.4927    6.7078   10.0226 C   0  0  0  0  0  0  0  0  0  0  0  0
    1.5662    6.7482   11.2089 C   0  0  0  0  0  0  0  0  0  0  0  0
    1.4247    5.6101   12.0281 C   0  0  0  0  0  0  0  0  0  0  0  0
    0.5982    5.6429   13.1507 C   0  0  0  0  0  0  0  0  0  0  0  0
   -0.0536    6.8260   13.4892 C   0  0  0  0  0  0  0  0  0  0  0  0
    0.1010    7.9733   12.6940 C   0  0  0  0  0  0  0  0  0  0  0  0
   -0.7152    9.4697   13.2598 S   0  0  0  0  0  0  0  0  0  0  0  0
   -2.1222    9.1397   13.0370 O   0  0  0  0  0  0  0  0  0  0  0  0
   -0.3168    9.5222   14.6666 O   0  0  0  0  0  0  0  0  0  0  0  0
   -0.1904   10.5506   12.4375 O   0  5  0  0  0  0  0  0  0  0  0  0
    0.8869    7.9347   11.5488 C   0  0  0  0  0  0  0  0  0  0  0  0
    1.0188    8.9991   10.7446 F   0  0  0  0  0  0  0  0  0  0  0  0
    3.7314    7.4332   10.1066 C   0  0  0  0  0  0  0  0  0  0  0  0
    4.2389    8.1442   11.1797 C   0  0  0  0  0  0  0  0  0  0  0  0
    5.4398    8.7392   10.7804 C   0  0  0  0  0  0  0  0  0  0  0  0
    5.6990    8.3678    9.4709 C   0  0  0  0  0  0  0  0  0  0  0  0
    4.6452    7.5632    9.0729 N   0  0  0  0  0  0  0  0  0  0  0  0
    6.8121    8.7422    8.6367 C   0  0  0  0  0  0  0  0  0  0  0  0
    7.8187    9.7064    9.2108 C   0  0  0  0  0  0  0  0  0  0  0  0
    7.8427   11.0417    8.7620 C   0  0  0  0  0  0  0  0  0  0  0  0
    8.7254   11.9632    9.3249 C   0  0  0  0  0  0  0  0  0  0  0  0
    9.5536   11.5705   10.3737 C   0  0  0  0  0  0  0  0  0  0  0  0
    9.5201   10.2483   10.8459 C   0  0  0  0  0  0  0  0  0  0  0  0
   10.5553    9.8629   12.2627 S   0  0  0  0  0  0  0  0  0  0  0  0
   11.8962    9.9657   11.6885 O   0  0  0  0  0  0  0  0  0  0  0  0
   10.2083   10.9329   13.1980 O   0  0  0  0  0  0  0  0  0  0  0  0
   10.1675    8.5273   12.6958 O   0  5  0  0  0  0  0  0  0  0  0  0
    8.6787    9.3128   10.2556 C   0  0  0  0  0  0  0  0  0  0  0  0
    8.6492    8.0344   10.6592 F   0  0  0  0  0  0  0  0  0  0  0  0
    7.0055    8.3058    7.3675 C   0  0  0  0  0  0  0  0  0  0  0  0
    6.2330    7.4270    6.6147 N   0  0  0  0  0  0  0  0  0  0  0  0
    6.8094    7.3566    5.4393 C   0  0  0  0  0  0  0  0  0  0  0  0
    6.4292    6.5200    4.2453 C   0  0  0  0  0  0  0  0  0  0  0  0
    7.2423    6.5610    2.9968 C   0  0  0  0  0  0  0  0  0  0  0  0
    8.5512    6.0427    2.9969 C   0  0  0  0  0  0  0  0  0  0  0  0
    9.3327    6.0869    1.8413 C   0  0  0  0  0  0  0  0  0  0  0  0
    8.7933    6.5969    0.6631 C   0  0  0  0  0  0  0  0  0  0  0  0
    7.4781    7.0847    0.6437 C   0  0  0  0  0  0  0  0  0  0  0  0
    6.8117    7.5875   -0.9463 S   0  0  0  0  0  0  0  0  0  0  0  0
    7.5456    8.8238   -1.2013 O   0  0  0  0  0  0  0  0  0  0  0  0
    7.1864    6.4581   -1.7982 O   0  0  0  0  0  0  0  0  0  0  0  0
    5.3764    7.7309   -0.7413 O   0  5  0  0  0  0  0  0  0  0  0  0
    6.7170    7.0995    1.8059 C   0  0  0  0  0  0  0  0  0  0  0  0
    5.4753    7.6043    1.8309 F   0  0  0  0  0  0  0  0  0  0  0  0
    5.3382    5.7304    4.3127 C   0  0  0  0  0  0  0  0  0  0  0  0
    4.8413    4.8728    3.2384 C   0  0  0  0  0  0  0  0  0  0  0  0
    3.6670    4.3357    3.6101 C   0  0  0  0  0  0  0  0  0  0  0  0
    3.3481    4.7852    4.9646 C   0  0  0  0  0  0  0  0  0  0  0  0
    4.4240    5.5580    5.3253 N   0  0  0  0  0  0  0  0  0  0  0  0
    8.0027    8.2060    5.3058 C   0  0  0  0  0  0  0  0  0  0  0  0
    8.1065    8.7214    6.5236 C   0  0  0  0  0  0  0  0  0  0  0  0
    0.8707    5.2371    8.8643 C   0  0  0  0  0  0  0  0  0  0  0  0
    0.7805    4.5819    7.7155 C   0  0  0  0  0  0  0  0  0  0  0  0
   -0.0413    4.3155    4.5635 C   0  0  0  0  0  0  0  0  0  0  0  0
   -1.1060    3.5547    4.0704 C   0  0  0  0  0  0  0  0  0  0  0  0
   -2.7481    1.9149   -2.4312 C   0  0  0  0  0  0  0  0  0  0  0  0
   -3.5322    3.0623   -3.0634 C   0  0  0  0  0  0  0  0  0  0  0  0
   -2.9132    4.4114   -2.7311 C   0  0  0  0  0  0  0  0  0  0  0  0
   -1.3928    4.4648   -2.9458 C   0  0  1  0  0  0  0  0  0  0  0  0
   -0.6483    6.0200   -2.2857 S   0  0  0  0  0  0  0  0  0  0  0  0
   -1.5344    6.3051   -0.8288 C   0  0  0  0  0  0  0  0  0  0  0  0
   -2.6566    6.9855   -0.7416 N   0  0  0  0  0  0  0  0  0  0  0  0
   -3.0810    6.8495    0.5585 N   0  0  0  0  0  0  0  0  0  0  0  0
   -2.2446    6.0926    1.2559 N   0  0  0  0  0  0  0  0  0  0  0  0
   -1.2451    5.7897    0.4015 N   0  0  0  0  0  0  0  0  0  0  0  0
   -0.1674    4.9562    0.8514 C   0  0  0  0  0  0  0  0  0  0  0  0
   -0.6485    3.2543   -2.3636 C   0  0  0  0  0  0  0  0  0  0  0  0
   -1.2440    1.5306   -7.4383 H   0  0  0  0  0  0  0  0  0  0  0  0
   -0.3139    0.4293   -6.4507 H   0  0  0  0  0  0  0  0  0  0  0  0
    0.1040    2.1252   -6.4989 H   0  0  0  0  0  0  0  0  0  0  0  0
   -2.0834    2.6654   -5.2976 H   0  0  0  0  0  0  0  0  0  0  0  0
   -2.4346   -0.2957   -5.5064 H   0  0  0  0  0  0  0  0  0  0  0  0
   -3.3641    0.9152   -6.3565 H   0  0  0  0  0  0  0  0  0  0  0  0
   -3.4594    0.8038   -4.6153 H   0  0  0  0  0  0  0  0  0  0  0  0
    0.0242    2.0574   -4.3270 H   0  0  0  0  0  0  0  0  0  0  0  0
   -0.8091    0.5032   -4.0779 H   0  0  0  0  0  0  0  0  0  0  0  0
    1.4592    0.4921    0.4288 H   0  0  0  0  0  0  0  0  0  0  0  0
    0.6828   -0.7354   -0.5903 H   0  0  0  0  0  0  0  0  0  0  0  0
   -0.4792    0.4416    1.8867 H   0  0  0  0  0  0  0  0  0  0  0  0
    0.3167   -1.1758    1.6886 H   0  0  0  0  0  0  0  0  0  0  0  0
   -3.3692   -0.8351    0.1727 H   0  0  0  0  0  0  0  0  0  0  0  0
   -2.1726    0.5057   -0.0758 H   0  0  0  0  0  0  0  0  0  0  0  0
   -3.7064    0.0277    2.4131 H   0  0  0  0  0  0  0  0  0  0  0  0
   -4.0662    1.2351    1.1635 H   0  0  0  0  0  0  0  0  0  0  0  0
    0.3016    0.5161    4.3454 H   0  0  0  0  0  0  0  0  0  0  0  0
    2.1573    1.8444    5.1649 H   0  0  0  0  0  0  0  0  0  0  0  0
    1.9371    4.7451   11.7951 H   0  0  0  0  0  0  0  0  0  0  0  0
    0.4704    4.7962   13.7267 H   0  0  0  0  0  0  0  0  0  0  0  0
   -0.6532    6.8599   14.3285 H   0  0  0  0  0  0  0  0  0  0  0  0
    3.8060    8.2219   12.1133 H   0  0  0  0  0  0  0  0  0  0  0  0
    6.0326    9.3513   11.3625 H   0  0  0  0  0  0  0  0  0  0  0  0
    4.5578    7.1449    8.1860 H   0  0  0  0  0  0  0  0  0  0  0  0
    7.2017   11.3404    8.0104 H   0  0  0  0  0  0  0  0  0  0  0  0
    8.7647   12.9302    8.9665 H   0  0  0  0  0  0  0  0  0  0  0  0
   10.1947   12.2542   10.8057 H   0  0  0  0  0  0  0  0  0  0  0  0
    8.9363    5.6264    3.8591 H   0  0  0  0  0  0  0  0  0  0  0  0
   10.3056    5.7433    1.8599 H   0  0  0  0  0  0  0  0  0  0  0  0
    9.3623    6.6161   -0.1977 H   0  0  0  0  0  0  0  0  0  0  0  0
    5.3167    4.7063    2.3377 H   0  0  0  0  0  0  0  0  0  0  0  0
    3.0849    3.7082    3.0335 H   0  0  0  0  0  0  0  0  0  0  0  0
    4.5306    5.9506    6.2218 H   0  0  0  0  0  0  0  0  0  0  0  0
    8.6025    8.3606    4.4804 H   0  0  0  0  0  0  0  0  0  0  0  0
    8.8738    9.3396    6.8305 H   0  0  0  0  0  0  0  0  0  0  0  0
    0.1515    5.2184    9.6042 H   0  0  0  0  0  0  0  0  0  0  0  0
    0.0404    3.9422    7.3867 H   0  0  0  0  0  0  0  0  0  0  0  0
   -0.1280    5.3426    4.6147 H   0  0  0  0  0  0  0  0  0  0  0  0
   -1.9760    4.0134    3.7578 H   0  0  0  0  0  0  0  0  0  0  0  0
   -2.8475    1.9923   -1.3686 H   0  0  0  0  0  0  0  0  0  0  0  0
   -3.1621    1.0148   -2.8354 H   0  0  0  0  0  0  0  0  0  0  0  0
   -4.5368    3.0408   -2.6957 H   0  0  0  0  0  0  0  0  0  0  0  0
   -3.5122    2.9368   -4.1258 H   0  0  0  0  0  0  0  0  0  0  0  0
   -3.1170    4.6325   -1.7042 H   0  0  0  0  0  0  0  0  0  0  0  0
   -3.3478    5.1268   -3.3977 H   0  0  0  0  0  0  0  0  0  0  0  0
   -1.2695    4.4414   -4.0084 H   0  0  0  0  0  0  0  0  0  0  0  0
    0.5328    4.8174    0.0543 H   0  0  0  0  0  0  0  0  0  0  0  0
   -0.5544    4.0062    1.1557 H   0  0  0  0  0  0  0  0  0  0  0  0
    0.3230    5.4235    1.6797 H   0  0  0  0  0  0  0  0  0  0  0  0
    0.3665    3.2922   -2.7000 H   0  0  0  0  0  0  0  0  0  0  0  0
   -0.7385    3.3236   -1.2996 H   0  0  0  0  0  0  0  0  0  0  0  0
  1  2  1  0  0  0  0
  1 92  1  0  0  0  0
  1 93  1  0  0  0  0
  1 94  1  0  0  0  0
  2  3  1  0  0  0  0
  2  4  1  0  0  0  0
  2 95  1  0  0  0  0
  3 96  1  0  0  0  0
  3 97  1  0  0  0  0
  3 98  1  0  0  0  0
  4 99  1  0  0  0  0
  4100  1  0  0  0  0
  5 80  1  0  0  0  0
  5 91  1  0  0  0  0
  5  6  1  1  0  0  0
  5  4  1  0  0  0  0
  6  7  2  0  0  0  0
  6  8  1  0  0  0  0
  8  9  1  0  0  0  0
  9 10  1  0  0  0  0
  9101  1  0  0  0  0
  9102  1  0  0  0  0
 10 11  1  0  0  0  0
 10103  1  0  0  0  0
 10104  1  0  0  0  0
 11 12  1  0  0  0  0
 12 13  1  0  0  0  0
 12105  1  0  0  0  0
 12106  1  0  0  0  0
 13 14  1  0  0  0  0
 13107  1  0  0  0  0
 13108  1  0  0  0  0
 14 15  1  0  0  0  0
 15 16  2  0  0  0  0
 15 17  1  0  0  0  0
 17 18  1  0  0  0  0
 17 79  2  0  0  0  0
 18 19  2  0  0  0  0
 18109  1  0  0  0  0
 19 20  1  0  0  0  0
 19110  1  0  0  0  0
 20 21  1  0  0  0  0
 20 78  2  0  0  0  0
 21 22  1  0  0  0  0
 21 72  2  0  0  0  0
 22 23  2  0  0  0  0
 22 77  1  0  0  0  0
 23 24  1  0  0  0  0
 24 25  2  0  0  0  0
 24 76  1  0  0  0  0
 25 26  1  0  0  0  0
 25 37  1  0  0  0  0
 26 27  1  0  0  0  0
 26 35  2  0  0  0  0
 27 28  2  0  0  0  0
 27111  1  0  0  0  0
 28 29  1  0  0  0  0
 28112  1  0  0  0  0
 29 30  2  0  0  0  0
 29113  1  0  0  0  0
 30 31  1  0  0  0  0
 30 35  1  0  0  0  0
 31 32  2  0  0  0  0
 31 33  2  0  0  0  0
 31 34  1  0  0  0  0
 35 36  1  0  0  0  0
 37 38  2  0  0  0  0
 37 41  1  0  0  0  0
 38 39  1  0  0  0  0
 38114  1  0  0  0  0
 39 40  2  0  0  0  0
 39115  1  0  0  0  0
 40 41  1  0  0  0  0
 40 42  1  0  0  0  0
 41116  1  0  0  0  0
 42 43  1  0  0  0  0
 42 54  2  0  0  0  0
 43 44  1  0  0  0  0
 43 52  2  0  0  0  0
 44 45  2  0  0  0  0
 44117  1  0  0  0  0
 45 46  1  0  0  0  0
 45118  1  0  0  0  0
 46 47  2  0  0  0  0
 46119  1  0  0  0  0
 47 48  1  0  0  0  0
 47 52  1  0  0  0  0
 48 49  2  0  0  0  0
 48 50  2  0  0  0  0
 48 51  1  0  0  0  0
 52 53  1  0  0  0  0
 54 55  1  0  0  0  0
 54 75  1  0  0  0  0
 55 56  2  0  0  0  0
 56 57  1  0  0  0  0
 56 74  1  0  0  0  0
 57 58  1  0  0  0  0
 57 69  2  0  0  0  0
 58 59  1  0  0  0  0
 58 67  2  0  0  0  0
 59 60  2  0  0  0  0
 59120  1  0  0  0  0
 60 61  1  0  0  0  0
 60121  1  0  0  0  0
 61 62  2  0  0  0  0
 61122  1  0  0  0  0
 62 63  1  0  0  0  0
 62 67  1  0  0  0  0
 63 64  2  0  0  0  0
 63 65  2  0  0  0  0
 63 66  1  0  0  0  0
 67 68  1  0  0  0  0
 69 70  1  0  0  0  0
 69 73  1  0  0  0  0
 70 71  2  0  0  0  0
 70123  1  0  0  0  0
 71 72  1  0  0  0  0
 71124  1  0  0  0  0
 72 73  1  0  0  0  0
 73125  1  0  0  0  0
 74 75  2  0  0  0  0
 74126  1  0  0  0  0
 75127  1  0  0  0  0
 76 77  2  0  0  0  0
 76128  1  0  0  0  0
 77129  1  0  0  0  0
 78 79  1  0  0  0  0
 78130  1  0  0  0  0
 79131  1  0  0  0  0
 80 81  1  0  0  0  0
 80132  1  0  0  0  0
 80133  1  0  0  0  0
 81 82  1  0  0  0  0
 81134  1  0  0  0  0
 81135  1  0  0  0  0
 82 83  1  0  0  0  0
 82136  1  0  0  0  0
 82137  1  0  0  0  0
 83 84  1  0  0  0  0
 83 91  1  0  0  0  0
 83138  1  6  0  0  0
 84 85  1  0  0  0  0
 85 86  2  0  0  0  0
 85 89  1  0  0  0  0
 86 87  1  0  0  0  0
 87 88  2  0  0  0  0
 88 89  1  0  0  0  0
 89 90  1  0  0  0  0
 90139  1  0  0  0  0
 90140  1  0  0  0  0
 90141  1  0  0  0  0
 91142  1  0  0  0  0
 91143  1  0  0  0  0
M  CHG  4   4   1  34  -1  51  -1  66  -1
M  END
$$$$
