6_4_8167
 OpenBabel04152301363D

138150  0  0  0  0  0  0  0  0999 V2000
    0.5623   -1.3086    0.4914 O   0  0  0  0  0  0  0  0  0  0  0  0
    1.7596   -1.0862    0.3097 C   0  0  0  0  0  0  0  0  0  0  0  0
    2.1193   -0.4945   -0.8552 O   0  0  0  0  0  0  0  0  0  0  0  0
    3.4502   -0.2498   -1.3310 C   0  0  0  0  0  0  0  0  0  0  0  0
    3.8390    1.2088   -1.1022 C   0  0  0  0  0  0  0  0  0  0  0  0
    3.6721    1.6387    0.2469 O   0  0  0  0  0  0  0  0  0  0  0  0
    2.4337    2.2663    0.5676 C   0  0  0  0  0  0  0  0  0  0  0  0
    2.7309    3.6578    1.1313 C   0  0  0  0  0  0  0  0  0  0  0  0
    3.3578    4.4303    0.0935 O   0  0  0  0  0  0  0  0  0  0  0  0
    4.7099    4.2753   -0.0009 C   0  0  0  0  0  0  0  0  0  0  0  0
    5.4829    3.9741    0.8915 O   0  0  0  0  0  0  0  0  0  0  0  0
    5.0585    4.4184   -1.4367 C   0  0  0  0  0  0  0  0  0  0  0  0
    4.4244    5.3719   -2.1787 C   0  0  0  0  0  0  0  0  0  0  0  0
    4.7650    5.4189   -3.5076 C   0  0  0  0  0  0  0  0  0  0  0  0
    4.1588    6.4669   -4.3416 C   0  0  0  0  0  0  0  0  0  0  0  0
    3.4395    6.1726   -5.5072 C   0  0  0  0  0  0  0  0  0  0  0  0
    2.7071    7.1720   -6.1602 C   0  0  0  0  0  0  0  0  0  0  0  0
    2.6936    8.4768   -5.6650 C   0  0  0  0  0  0  0  0  0  0  0  0
    3.4339    8.7964   -4.5333 C   0  0  0  0  0  0  0  0  0  0  0  0
    4.1661    7.8027   -3.8870 C   0  0  0  0  0  0  0  0  0  0  0  0
    5.6328    4.5423   -4.0674 N   0  0  0  0  0  0  0  0  0  0  0  0
    6.1778    3.6006   -3.2659 C   0  0  0  0  0  0  0  0  0  0  0  0
    7.0833    2.7185   -3.8509 N   0  0  0  0  0  0  0  0  0  0  0  0
    7.5720    1.5919   -3.2867 C   0  0  0  0  0  0  0  0  0  0  0  0
    6.8900    0.7203   -2.5752 N   0  0  0  0  0  0  0  0  0  0  0  0
    7.7111   -0.2924   -2.1004 C   0  0  0  0  0  0  0  0  0  0  0  0
    7.3239   -1.3614   -1.2638 C   0  0  0  0  0  0  0  0  0  0  0  0
    8.2707   -2.2913   -0.8236 C   0  0  0  0  0  0  0  0  0  0  0  0
    9.5989   -2.1730   -1.2135 C   0  0  0  0  0  0  0  0  0  0  0  0
   10.0060   -1.1393   -2.0651 C   0  0  0  0  0  0  0  0  0  0  0  0
    9.0430   -0.2110   -2.5021 C   0  0  0  0  0  0  0  0  0  0  0  0
    9.2187    1.1402   -3.5563 S   0  0  0  0  0  0  0  0  0  0  0  0
    5.9406    3.5419   -1.9526 N   0  0  0  0  0  0  0  0  0  0  0  0
    2.7197   -1.4932    1.3908 C   0  0  0  0  0  0  0  0  0  0  0  0
    3.9919   -0.9552    1.5969 C   0  0  0  0  0  0  0  0  0  0  0  0
    4.7846   -1.3311    2.6716 C   0  0  0  0  0  0  0  0  0  0  0  0
    4.3054   -2.2409    3.6062 C   0  0  0  0  0  0  0  0  0  0  0  0
    5.2022   -2.6132    4.7135 C   0  0  0  0  0  0  0  0  0  0  0  0
    5.9080   -3.9299    4.6572 C   0  0  0  0  0  0  0  0  0  0  0  0
    6.7651   -4.4401    5.4972 N   0  0  0  0  0  0  0  0  0  0  0  0
    7.1054   -5.6805    4.9765 C   0  0  0  0  0  0  0  0  0  0  0  0
    7.9675   -6.5910    5.4826 C   0  0  0  0  0  0  0  0  0  0  0  0
    8.1511   -7.8654    4.7065 C   0  0  0  0  0  0  0  0  0  0  0  0
    8.8999   -7.8540    3.5118 C   0  0  0  0  0  0  0  0  0  0  0  0
    9.0409   -9.0150    2.7519 C   0  0  0  0  0  0  0  0  0  0  0  0
    8.4707  -10.2029    3.2018 C   0  0  0  0  0  0  0  0  0  0  0  0
    7.7473  -10.2307    4.4059 C   0  0  0  0  0  0  0  0  0  0  0  0
    7.0942  -11.8223    4.9210 S   0  0  0  0  0  0  0  0  0  0  0  0
    6.0837  -12.0728    3.8937 O   0  0  0  0  0  0  0  0  0  0  0  0
    8.2766  -12.6793    4.8349 O   0  0  0  0  0  0  0  0  0  0  0  0
    6.5763  -11.6296    6.2680 O   0  5  0  0  0  0  0  0  0  0  0  0
    7.5721   -9.0697    5.1495 C   0  0  0  0  0  0  0  0  0  0  0  0
    6.8421   -9.0515    6.2735 F   0  0  0  0  0  0  0  0  0  0  0  0
    8.6891   -6.3981    6.7092 C   0  0  0  0  0  0  0  0  0  0  0  0
    9.5371   -7.2733    7.3602 C   0  0  0  0  0  0  0  0  0  0  0  0
    9.9921   -6.6467    8.5262 C   0  0  0  0  0  0  0  0  0  0  0  0
    9.4474   -5.3722    8.5879 C   0  0  0  0  0  0  0  0  0  0  0  0
    8.6415   -5.2388    7.4727 N   0  0  0  0  0  0  0  0  0  0  0  0
    9.6506   -4.3620    9.5959 C   0  0  0  0  0  0  0  0  0  0  0  0
   10.5862   -4.6982   10.7241 C   0  0  0  0  0  0  0  0  0  0  0  0
   10.0634   -5.0023   11.9963 C   0  0  0  0  0  0  0  0  0  0  0  0
   10.9132   -5.3562   13.0420 C   0  0  0  0  0  0  0  0  0  0  0  0
   12.2827   -5.4611   12.8086 C   0  0  0  0  0  0  0  0  0  0  0  0
   12.8088   -5.1869   11.5355 C   0  0  0  0  0  0  0  0  0  0  0  0
   14.5686   -5.4475   11.2923 S   0  0  0  0  0  0  0  0  0  0  0  0
   15.1366   -4.2599   11.9272 O   0  0  0  0  0  0  0  0  0  0  0  0
   14.8019   -6.6977   12.0164 O   0  0  0  0  0  0  0  0  0  0  0  0
   14.7611   -5.5435    9.8513 O   0  5  0  0  0  0  0  0  0  0  0  0
   11.9734   -4.7840   10.5023 C   0  0  0  0  0  0  0  0  0  0  0  0
   12.4497   -4.4679    9.2891 F   0  0  0  0  0  0  0  0  0  0  0  0
    9.0528   -3.1451    9.6332 C   0  0  0  0  0  0  0  0  0  0  0  0
    8.1480   -2.5800    8.7449 N   0  0  0  0  0  0  0  0  0  0  0  0
    7.8204   -1.4150    9.2540 C   0  0  0  0  0  0  0  0  0  0  0  0
    6.9050   -0.3610    8.6908 C   0  0  0  0  0  0  0  0  0  0  0  0
    6.6816    0.9374    9.3913 C   0  0  0  0  0  0  0  0  0  0  0  0
    7.7451    1.8464    9.5502 C   0  0  0  0  0  0  0  0  0  0  0  0
    7.5569    3.0525   10.2299 C   0  0  0  0  0  0  0  0  0  0  0  0
    6.2918    3.3883   10.7054 C   0  0  0  0  0  0  0  0  0  0  0  0
    5.2164    2.5081   10.5215 C   0  0  0  0  0  0  0  0  0  0  0  0
    3.5877    3.0626   11.0397 S   0  0  0  0  0  0  0  0  0  0  0  0
    3.6324    2.8216   12.4791 O   0  0  0  0  0  0  0  0  0  0  0  0
    3.6029    4.4738   10.6512 O   0  0  0  0  0  0  0  0  0  0  0  0
    2.6448    2.2489   10.2834 O   0  5  0  0  0  0  0  0  0  0  0  0
    5.4115    1.2803    9.8986 C   0  0  0  0  0  0  0  0  0  0  0  0
    4.4120    0.3963    9.7659 F   0  0  0  0  0  0  0  0  0  0  0  0
    6.2823   -0.6270    7.5269 C   0  0  0  0  0  0  0  0  0  0  0  0
    5.3773    0.2717    6.8205 C   0  0  0  0  0  0  0  0  0  0  0  0
    4.8760   -0.3678    5.7520 C   0  0  0  0  0  0  0  0  0  0  0  0
    5.4657   -1.7079    5.6742 C   0  0  0  0  0  0  0  0  0  0  0  0
    6.3070   -1.7638    6.7526 N   0  0  0  0  0  0  0  0  0  0  0  0
    8.4682   -1.1159   10.5370 C   0  0  0  0  0  0  0  0  0  0  0  0
    9.2488   -2.1763   10.6948 C   0  0  0  0  0  0  0  0  0  0  0  0
    6.3644   -5.8491    3.7464 C   0  0  0  0  0  0  0  0  0  0  0  0
    5.6267   -4.7801    3.4869 C   0  0  0  0  0  0  0  0  0  0  0  0
    3.0345   -2.7965    3.4362 C   0  0  0  0  0  0  0  0  0  0  0  0
    2.2561   -2.4319    2.3304 C   0  0  0  0  0  0  0  0  0  0  0  0
    3.4955   -0.4664   -2.3779 H   0  0  0  0  0  0  0  0  0  0  0  0
    4.1307   -0.8779   -0.7951 H   0  0  0  0  0  0  0  0  0  0  0  0
    3.2300    1.8240   -1.7311 H   0  0  0  0  0  0  0  0  0  0  0  0
    4.8802    1.2961   -1.3330 H   0  0  0  0  0  0  0  0  0  0  0  0
    1.9117    1.6841    1.2980 H   0  0  0  0  0  0  0  0  0  0  0  0
    1.8237    2.3462   -0.3079 H   0  0  0  0  0  0  0  0  0  0  0  0
    3.3882    3.5768    1.9717 H   0  0  0  0  0  0  0  0  0  0  0  0
    1.8266    4.1305    1.4532 H   0  0  0  0  0  0  0  0  0  0  0  0
    3.7323    6.0171   -1.7667 H   0  0  0  0  0  0  0  0  0  0  0  0
    3.4494    5.2131   -5.8872 H   0  0  0  0  0  0  0  0  0  0  0  0
    2.1738    6.9420   -7.0133 H   0  0  0  0  0  0  0  0  0  0  0  0
    2.1345    9.2034   -6.1388 H   0  0  0  0  0  0  0  0  0  0  0  0
    3.4413    9.7637   -4.1738 H   0  0  0  0  0  0  0  0  0  0  0  0
    4.7268    8.0494   -3.0565 H   0  0  0  0  0  0  0  0  0  0  0  0
    7.3960    2.9357   -4.7588 H   0  0  0  0  0  0  0  0  0  0  0  0
    6.3375   -1.4570   -0.9758 H   0  0  0  0  0  0  0  0  0  0  0  0
    7.9822   -3.0674   -0.2076 H   0  0  0  0  0  0  0  0  0  0  0  0
   10.2935   -2.8552   -0.8713 H   0  0  0  0  0  0  0  0  0  0  0  0
   10.9901   -1.0598   -2.3656 H   0  0  0  0  0  0  0  0  0  0  0  0
    4.3535   -0.2564    0.9291 H   0  0  0  0  0  0  0  0  0  0  0  0
    5.7315   -0.9345    2.7771 H   0  0  0  0  0  0  0  0  0  0  0  0
    9.3475   -6.9790    3.1969 H   0  0  0  0  0  0  0  0  0  0  0  0
    9.5641   -8.9938    1.8626 H   0  0  0  0  0  0  0  0  0  0  0  0
    8.5799  -11.0670    2.6482 H   0  0  0  0  0  0  0  0  0  0  0  0
    9.7904   -8.2220    7.0427 H   0  0  0  0  0  0  0  0  0  0  0  0
   10.6275   -7.0637    9.2244 H   0  0  0  0  0  0  0  0  0  0  0  0
    8.1114   -4.4391    7.2520 H   0  0  0  0  0  0  0  0  0  0  0  0
    9.0444   -4.9627   12.1547 H   0  0  0  0  0  0  0  0  0  0  0  0
   10.5309   -5.5394   13.9829 H   0  0  0  0  0  0  0  0  0  0  0  0
   12.9140   -5.7418   13.5752 H   0  0  0  0  0  0  0  0  0  0  0  0
    8.6733    1.6194    9.1605 H   0  0  0  0  0  0  0  0  0  0  0  0
    8.3527    3.6924   10.3791 H   0  0  0  0  0  0  0  0  0  0  0  0
    6.1459    4.2858   11.1935 H   0  0  0  0  0  0  0  0  0  0  0  0
    5.1579    1.2415    7.0969 H   0  0  0  0  0  0  0  0  0  0  0  0
    4.1858    0.0216    5.0909 H   0  0  0  0  0  0  0  0  0  0  0  0
    6.8748   -2.5423    6.9545 H   0  0  0  0  0  0  0  0  0  0  0  0
    8.3479   -0.2969   11.1533 H   0  0  0  0  0  0  0  0  0  0  0  0
    9.9128   -2.2971   11.4755 H   0  0  0  0  0  0  0  0  0  0  0  0
    6.4049   -6.6904    3.1500 H   0  0  0  0  0  0  0  0  0  0  0  0
    5.0151   -4.5919    2.6772 H   0  0  0  0  0  0  0  0  0  0  0  0
    2.6702   -3.4741    4.1241 H   0  0  0  0  0  0  0  0  0  0  0  0
    1.3256   -2.8596    2.2026 H   0  0  0  0  0  0  0  0  0  0  0  0
  1  2  2  0  0  0  0
  2  3  1  0  0  0  0
  2 34  1  0  0  0  0
  3  4  1  0  0  0  0
  4  5  1  0  0  0  0
  4 97  1  0  0  0  0
  4 98  1  0  0  0  0
  5  6  1  0  0  0  0
  5 99  1  0  0  0  0
  5100  1  0  0  0  0
  6  7  1  0  0  0  0
  7  8  1  0  0  0  0
  7101  1  0  0  0  0
  7102  1  0  0  0  0
  8  9  1  0  0  0  0
  8103  1  0  0  0  0
  8104  1  0  0  0  0
  9 10  1  0  0  0  0
 10 11  2  0  0  0  0
 10 12  1  0  0  0  0
 12 13  1  0  0  0  0
 12 33  2  0  0  0  0
 13 14  2  0  0  0  0
 13105  1  0  0  0  0
 14 15  1  0  0  0  0
 14 21  1  0  0  0  0
 15 16  1  0  0  0  0
 15 20  2  0  0  0  0
 16 17  2  0  0  0  0
 16106  1  0  0  0  0
 17 18  1  0  0  0  0
 17107  1  0  0  0  0
 18 19  2  0  0  0  0
 18108  1  0  0  0  0
 19 20  1  0  0  0  0
 19109  1  0  0  0  0
 20110  1  0  0  0  0
 21 22  2  0  0  0  0
 22 23  1  0  0  0  0
 22 33  1  0  0  0  0
 23 24  1  0  0  0  0
 23111  1  0  0  0  0
 24 25  2  0  0  0  0
 24 32  1  0  0  0  0
 25 26  1  0  0  0  0
 26 27  1  0  0  0  0
 26 31  2  0  0  0  0
 27 28  2  0  0  0  0
 27112  1  0  0  0  0
 28 29  1  0  0  0  0
 28113  1  0  0  0  0
 29 30  2  0  0  0  0
 29114  1  0  0  0  0
 30 31  1  0  0  0  0
 30115  1  0  0  0  0
 31 32  1  0  0  0  0
 34 35  1  0  0  0  0
 34 96  2  0  0  0  0
 35 36  2  0  0  0  0
 35116  1  0  0  0  0
 36 37  1  0  0  0  0
 36117  1  0  0  0  0
 37 38  1  0  0  0  0
 37 95  2  0  0  0  0
 38 39  1  0  0  0  0
 38 89  2  0  0  0  0
 39 40  2  0  0  0  0
 39 94  1  0  0  0  0
 40 41  1  0  0  0  0
 41 42  2  0  0  0  0
 41 93  1  0  0  0  0
 42 43  1  0  0  0  0
 42 54  1  0  0  0  0
 43 44  1  0  0  0  0
 43 52  2  0  0  0  0
 44 45  2  0  0  0  0
 44118  1  0  0  0  0
 45 46  1  0  0  0  0
 45119  1  0  0  0  0
 46 47  2  0  0  0  0
 46120  1  0  0  0  0
 47 48  1  0  0  0  0
 47 52  1  0  0  0  0
 48 49  2  0  0  0  0
 48 50  2  0  0  0  0
 48 51  1  0  0  0  0
 52 53  1  0  0  0  0
 54 55  2  0  0  0  0
 54 58  1  0  0  0  0
 55 56  1  0  0  0  0
 55121  1  0  0  0  0
 56 57  2  0  0  0  0
 56122  1  0  0  0  0
 57 58  1  0  0  0  0
 57 59  1  0  0  0  0
 58123  1  0  0  0  0
 59 60  1  0  0  0  0
 59 71  2  0  0  0  0
 60 61  1  0  0  0  0
 60 69  2  0  0  0  0
 61 62  2  0  0  0  0
 61124  1  0  0  0  0
 62 63  1  0  0  0  0
 62125  1  0  0  0  0
 63 64  2  0  0  0  0
 63126  1  0  0  0  0
 64 65  1  0  0  0  0
 64 69  1  0  0  0  0
 65 66  2  0  0  0  0
 65 67  2  0  0  0  0
 65 68  1  0  0  0  0
 69 70  1  0  0  0  0
 71 72  1  0  0  0  0
 71 92  1  0  0  0  0
 72 73  2  0  0  0  0
 73 74  1  0  0  0  0
 73 91  1  0  0  0  0
 74 75  1  0  0  0  0
 74 86  2  0  0  0  0
 75 76  1  0  0  0  0
 75 84  2  0  0  0  0
 76 77  2  0  0  0  0
 76127  1  0  0  0  0
 77 78  1  0  0  0  0
 77128  1  0  0  0  0
 78 79  2  0  0  0  0
 78129  1  0  0  0  0
 79 80  1  0  0  0  0
 79 84  1  0  0  0  0
 80 81  2  0  0  0  0
 80 82  2  0  0  0  0
 80 83  1  0  0  0  0
 84 85  1  0  0  0  0
 86 87  1  0  0  0  0
 86 90  1  0  0  0  0
 87 88  2  0  0  0  0
 87130  1  0  0  0  0
 88 89  1  0  0  0  0
 88131  1  0  0  0  0
 89 90  1  0  0  0  0
 90132  1  0  0  0  0
 91 92  2  0  0  0  0
 91133  1  0  0  0  0
 92134  1  0  0  0  0
 93 94  2  0  0  0  0
 93135  1  0  0  0  0
 94136  1  0  0  0  0
 95 96  1  0  0  0  0
 95137  1  0  0  0  0
 96138  1  0  0  0  0
M  CHG  3  51  -1  68  -1  83  -1
M  END
$$$$
