6_5_7682
 OpenBabel04152301363D

138149  0  0  0  0  0  0  0  0999 V2000
    1.2920    0.0289    0.4173 C   0  0  0  0  0  0  0  0  0  0  0  0
    0.7226   -1.0035   -0.5433 C   0  0  0  0  0  0  0  0  0  0  0  0
    0.7138   -2.3620   -0.0410 N   0  0  0  0  0  0  0  0  0  0  0  0
    1.6229   -2.7807    0.8888 N   0  0  0  0  0  0  0  0  0  0  0  0
    1.3290   -4.0879    1.1006 C   0  0  0  0  0  0  0  0  0  0  0  0
    2.0658   -4.8702    2.0731 C   0  0  0  0  0  0  0  0  0  0  0  0
    1.9994   -4.5542    3.4325 C   0  0  0  0  0  0  0  0  0  0  0  0
    2.7159   -5.3137    4.3545 C   0  0  0  0  0  0  0  0  0  0  0  0
    3.4846   -6.3643    3.8809 C   0  0  0  0  0  0  0  0  0  0  0  0
    3.5771   -6.6958    2.5750 N   0  0  0  0  0  0  0  0  0  0  0  0
    2.8699   -5.9386    1.6983 C   0  0  0  0  0  0  0  0  0  0  0  0
    0.2364   -4.4363    0.3052 C   0  0  0  0  0  0  0  0  0  0  0  0
   -0.5505   -5.5642    0.0882 C   0  0  0  0  0  0  0  0  0  0  0  0
   -1.5376   -5.2587   -0.8605 C   0  0  0  0  0  0  0  0  0  0  0  0
   -2.5337   -6.1603   -1.4109 C   0  0  0  0  0  0  0  0  0  0  0  0
   -3.0119   -7.1180   -0.7941 O   0  0  0  0  0  0  0  0  0  0  0  0
   -2.7676   -5.8932   -2.7246 O   0  0  0  0  0  0  0  0  0  0  0  0
   -3.5298   -6.8627   -3.4622 C   0  0  0  0  0  0  0  0  0  0  0  0
   -2.7133   -7.7688   -4.3982 C   0  0  0  0  0  0  0  0  0  0  0  0
   -1.5252   -8.3540   -3.8971 O   0  0  0  0  0  0  0  0  0  0  0  0
   -0.4545   -7.5301   -3.4589 C   0  0  0  0  0  0  0  0  0  0  0  0
   -0.1598   -6.1465   -4.0902 C   0  0  0  0  0  0  0  0  0  0  0  0
   -1.0331   -5.7248   -5.1317 O   0  0  0  0  0  0  0  0  0  0  0  0
   -0.4230   -5.4700   -6.3963 C   0  0  0  0  0  0  0  0  0  0  0  0
   -0.1226   -6.7271   -7.2124 C   0  0  0  0  0  0  0  0  0  0  0  0
    0.5487   -7.7229   -6.4570 O   0  0  0  0  0  0  0  0  0  0  0  0
    1.8006   -7.4203   -6.0772 C   0  0  0  0  0  0  0  0  0  0  0  0
    2.3925   -6.3618   -6.2624 O   0  0  0  0  0  0  0  0  0  0  0  0
    2.3769   -8.5845   -5.4028 C   0  0  0  0  0  0  0  0  0  0  0  0
    3.6471   -8.4165   -4.8481 C   0  0  0  0  0  0  0  0  0  0  0  0
    4.4881   -9.4994   -4.8592 C   0  0  0  0  0  0  0  0  0  0  0  0
    4.0073  -10.6849   -5.4188 C   0  0  0  0  0  0  0  0  0  0  0  0
    4.9888  -11.5815   -5.9809 C   0  0  0  0  0  0  0  0  0  0  0  0
    5.5595  -12.5606   -5.0491 C   0  0  0  0  0  0  0  0  0  0  0  0
    6.7983  -12.6912   -4.7146 N   0  0  0  0  0  0  0  0  0  0  0  0
    6.8265  -13.7793   -3.8534 C   0  0  0  0  0  0  0  0  0  0  0  0
    7.9599  -14.4928   -3.6350 C   0  0  0  0  0  0  0  0  0  0  0  0
    7.9706  -15.9374   -3.2393 C   0  0  0  0  0  0  0  0  0  0  0  0
    9.1566  -16.4645   -2.6932 C   0  0  0  0  0  0  0  0  0  0  0  0
    9.3150  -17.8388   -2.4934 C   0  0  0  0  0  0  0  0  0  0  0  0
    8.2643  -18.7071   -2.7699 C   0  0  0  0  0  0  0  0  0  0  0  0
    7.0718  -18.2019   -3.2880 C   0  0  0  0  0  0  0  0  0  0  0  0
    5.6927  -19.3201   -3.5512 S   0  0  0  0  0  0  0  0  0  0  0  0
    5.9754  -19.8351   -4.8866 O   0  0  0  0  0  0  0  0  0  0  0  0
    5.8640  -20.2864   -2.4654 O   0  0  0  0  0  0  0  0  0  0  0  0
    4.5069  -18.4816   -3.4136 O   0  5  0  0  0  0  0  0  0  0  0  0
    6.9464  -16.8501   -3.5757 C   0  0  0  0  0  0  0  0  0  0  0  0
    5.8938  -16.4413   -4.2959 F   0  0  0  0  0  0  0  0  0  0  0  0
    9.1353  -13.8145   -4.1033 C   0  0  0  0  0  0  0  0  0  0  0  0
    9.7623  -12.6279   -3.7836 C   0  0  0  0  0  0  0  0  0  0  0  0
   10.3037  -12.1502   -5.0104 C   0  0  0  0  0  0  0  0  0  0  0  0
    9.9889  -13.0768   -6.0080 C   0  0  0  0  0  0  0  0  0  0  0  0
    9.6512  -14.2098   -5.3138 N   0  0  0  0  0  0  0  0  0  0  0  0
    9.8767  -12.9346   -7.4470 C   0  0  0  0  0  0  0  0  0  0  0  0
   10.3612  -11.6182   -8.0153 C   0  0  0  0  0  0  0  0  0  0  0  0
    9.4518  -10.6183   -8.4216 C   0  0  0  0  0  0  0  0  0  0  0  0
    9.8902   -9.3370   -8.7623 C   0  0  0  0  0  0  0  0  0  0  0  0
   11.2406   -9.0229   -8.6497 C   0  0  0  0  0  0  0  0  0  0  0  0
   12.1548  -10.0002   -8.2266 C   0  0  0  0  0  0  0  0  0  0  0  0
   13.8555   -9.4918   -7.9523 S   0  0  0  0  0  0  0  0  0  0  0  0
   14.4191   -9.5627   -9.2982 O   0  0  0  0  0  0  0  0  0  0  0  0
   13.7034   -8.1337   -7.4254 O   0  0  0  0  0  0  0  0  0  0  0  0
   14.3987  -10.4406   -6.9873 O   0  5  0  0  0  0  0  0  0  0  0  0
   11.7270  -11.2928   -7.9356 C   0  0  0  0  0  0  0  0  0  0  0  0
   12.5870  -12.2437   -7.5386 F   0  0  0  0  0  0  0  0  0  0  0  0
    9.1145  -13.7419   -8.2461 C   0  0  0  0  0  0  0  0  0  0  0  0
    8.6194  -13.2932   -9.4662 N   0  0  0  0  0  0  0  0  0  0  0  0
    7.4892  -13.9274   -9.6192 C   0  0  0  0  0  0  0  0  0  0  0  0
    6.2735  -13.3165  -10.2113 C   0  0  0  0  0  0  0  0  0  0  0  0
    5.5472  -13.8978  -11.3630 C   0  0  0  0  0  0  0  0  0  0  0  0
    6.2601  -14.5328  -12.3952 C   0  0  0  0  0  0  0  0  0  0  0  0
    5.5924  -15.2634  -13.3870 C   0  0  0  0  0  0  0  0  0  0  0  0
    4.2019  -15.3528  -13.3745 C   0  0  0  0  0  0  0  0  0  0  0  0
    3.4761  -14.7193  -12.3617 C   0  0  0  0  0  0  0  0  0  0  0  0
    1.6820  -14.8403  -12.3971 S   0  0  0  0  0  0  0  0  0  0  0  0
    1.3905  -14.7243  -13.8270 O   0  0  0  0  0  0  0  0  0  0  0  0
    1.4549  -16.1665  -11.8316 O   0  0  0  0  0  0  0  0  0  0  0  0
    1.2026  -13.7145  -11.6037 O   0  5  0  0  0  0  0  0  0  0  0  0
    4.1369  -14.0191  -11.3581 C   0  0  0  0  0  0  0  0  0  0  0  0
    3.4435  -13.5323  -10.3198 F   0  0  0  0  0  0  0  0  0  0  0  0
    5.8342  -12.3660   -9.3539 C   0  0  0  0  0  0  0  0  0  0  0  0
    4.8263  -11.3374   -9.5419 C   0  0  0  0  0  0  0  0  0  0  0  0
    4.5343  -10.7939   -8.3408 C   0  0  0  0  0  0  0  0  0  0  0  0
    5.2633  -11.5304   -7.2991 C   0  0  0  0  0  0  0  0  0  0  0  0
    6.1547  -12.2719   -8.0073 N   0  0  0  0  0  0  0  0  0  0  0  0
    7.3339  -15.1220   -8.8026 C   0  0  0  0  0  0  0  0  0  0  0  0
    8.3519  -14.9526   -7.9535 C   0  0  0  0  0  0  0  0  0  0  0  0
    5.4591  -14.0821   -3.5157 C   0  0  0  0  0  0  0  0  0  0  0  0
    4.6249  -13.4203   -4.3143 C   0  0  0  0  0  0  0  0  0  0  0  0
    2.6589  -10.9246   -5.6707 C   0  0  0  0  0  0  0  0  0  0  0  0
    1.8143   -9.8483   -5.6380 C   0  0  0  0  0  0  0  0  0  0  0  0
   -1.4535   -3.5834   -1.3672 S   0  0  0  0  0  0  0  0  0  0  0  0
   -0.1339   -3.3566   -0.3865 C   0  0  0  0  0  0  0  0  0  0  0  0
    1.2575    0.9967   -0.0377 H   0  0  0  0  0  0  0  0  0  0  0  0
    2.3065   -0.2205    0.6487 H   0  0  0  0  0  0  0  0  0  0  0  0
    0.7126    0.0369    1.3168 H   0  0  0  0  0  0  0  0  0  0  0  0
    1.3083   -0.9836   -1.4386 H   0  0  0  0  0  0  0  0  0  0  0  0
   -0.3009   -0.7347   -0.7017 H   0  0  0  0  0  0  0  0  0  0  0  0
    1.4217   -3.7611    3.7523 H   0  0  0  0  0  0  0  0  0  0  0  0
    2.6752   -5.0995    5.3632 H   0  0  0  0  0  0  0  0  0  0  0  0
    4.0166   -6.9253    4.5645 H   0  0  0  0  0  0  0  0  0  0  0  0
    2.9334   -6.1703    0.6947 H   0  0  0  0  0  0  0  0  0  0  0  0
   -0.4273   -6.4783    0.5510 H   0  0  0  0  0  0  0  0  0  0  0  0
   -4.2478   -6.3362   -4.0557 H   0  0  0  0  0  0  0  0  0  0  0  0
   -3.9681   -7.5108   -2.7323 H   0  0  0  0  0  0  0  0  0  0  0  0
   -2.4423   -7.1817   -5.2507 H   0  0  0  0  0  0  0  0  0  0  0  0
   -3.3579   -8.6013   -4.5888 H   0  0  0  0  0  0  0  0  0  0  0  0
    0.4366   -8.1094   -3.5823 H   0  0  0  0  0  0  0  0  0  0  0  0
   -0.7734   -7.2596   -2.4740 H   0  0  0  0  0  0  0  0  0  0  0  0
    0.8323   -6.1762   -4.4899 H   0  0  0  0  0  0  0  0  0  0  0  0
   -0.2994   -5.4390   -3.2997 H   0  0  0  0  0  0  0  0  0  0  0  0
    0.4979   -4.9524   -6.2262 H   0  0  0  0  0  0  0  0  0  0  0  0
   -1.1234   -4.8947   -6.9649 H   0  0  0  0  0  0  0  0  0  0  0  0
    0.4927   -6.4560   -8.0447 H   0  0  0  0  0  0  0  0  0  0  0  0
   -1.0584   -7.1379   -7.5293 H   0  0  0  0  0  0  0  0  0  0  0  0
    3.9414   -7.5129   -4.4456 H   0  0  0  0  0  0  0  0  0  0  0  0
    5.4414   -9.4404   -4.4683 H   0  0  0  0  0  0  0  0  0  0  0  0
    9.9236  -15.8239   -2.4355 H   0  0  0  0  0  0  0  0  0  0  0  0
   10.2114  -18.2091   -2.1408 H   0  0  0  0  0  0  0  0  0  0  0  0
    8.3663  -19.7187   -2.5929 H   0  0  0  0  0  0  0  0  0  0  0  0
    9.8253  -12.1824   -2.8548 H   0  0  0  0  0  0  0  0  0  0  0  0
   10.8346  -11.2748   -5.1401 H   0  0  0  0  0  0  0  0  0  0  0  0
    9.7587  -15.1374   -5.6258 H   0  0  0  0  0  0  0  0  0  0  0  0
    8.4445  -10.8381   -8.4677 H   0  0  0  0  0  0  0  0  0  0  0  0
    9.2175   -8.6286   -9.0950 H   0  0  0  0  0  0  0  0  0  0  0  0
   11.5701   -8.0717   -8.8772 H   0  0  0  0  0  0  0  0  0  0  0  0
    7.2891  -14.4598  -12.4227 H   0  0  0  0  0  0  0  0  0  0  0  0
    6.1319  -15.7365  -14.1287 H   0  0  0  0  0  0  0  0  0  0  0  0
    3.7101  -15.8844  -14.1097 H   0  0  0  0  0  0  0  0  0  0  0  0
    4.4035  -11.0668  -10.4436 H   0  0  0  0  0  0  0  0  0  0  0  0
    3.9032   -9.9932   -8.1808 H   0  0  0  0  0  0  0  0  0  0  0  0
    6.9463  -12.6984   -7.6063 H   0  0  0  0  0  0  0  0  0  0  0  0
    6.6378  -15.8815   -8.8621 H   0  0  0  0  0  0  0  0  0  0  0  0
    8.5731  -15.6011   -7.1818 H   0  0  0  0  0  0  0  0  0  0  0  0
    5.1673  -14.7222   -2.7606 H   0  0  0  0  0  0  0  0  0  0  0  0
    3.5986  -13.4924   -4.3948 H   0  0  0  0  0  0  0  0  0  0  0  0
    2.3109  -11.8747   -5.8737 H   0  0  0  0  0  0  0  0  0  0  0  0
    0.7987   -9.9622   -5.7814 H   0  0  0  0  0  0  0  0  0  0  0  0
  1  2  1  0  0  0  0
  1 94  1  0  0  0  0
  1 95  1  0  0  0  0
  1 96  1  0  0  0  0
  2  3  1  0  0  0  0
  2 97  1  0  0  0  0
  2 98  1  0  0  0  0
  3  4  1  0  0  0  0
  3 93  1  0  0  0  0
  4  5  2  0  0  0  0
  5  6  1  0  0  0  0
  5 12  1  0  0  0  0
  6  7  1  0  0  0  0
  6 11  2  0  0  0  0
  7  8  2  0  0  0  0
  7 99  1  0  0  0  0
  8  9  1  0  0  0  0
  8100  1  0  0  0  0
  9 10  2  0  0  0  0
  9101  1  0  0  0  0
 10 11  1  0  0  0  0
 11102  1  0  0  0  0
 12 13  1  0  0  0  0
 12 93  2  0  0  0  0
 13 14  2  0  0  0  0
 13103  1  0  0  0  0
 14 15  1  0  0  0  0
 14 92  1  0  0  0  0
 15 16  2  0  0  0  0
 15 17  1  0  0  0  0
 17 18  1  0  0  0  0
 18 19  1  0  0  0  0
 18104  1  0  0  0  0
 18105  1  0  0  0  0
 19 20  1  0  0  0  0
 19106  1  0  0  0  0
 19107  1  0  0  0  0
 20 21  1  0  0  0  0
 21 22  1  0  0  0  0
 21108  1  0  0  0  0
 21109  1  0  0  0  0
 22 23  1  0  0  0  0
 22110  1  0  0  0  0
 22111  1  0  0  0  0
 23 24  1  0  0  0  0
 24 25  1  0  0  0  0
 24112  1  0  0  0  0
 24113  1  0  0  0  0
 25 26  1  0  0  0  0
 25114  1  0  0  0  0
 25115  1  0  0  0  0
 26 27  1  0  0  0  0
 27 28  2  0  0  0  0
 27 29  1  0  0  0  0
 29 30  1  0  0  0  0
 29 91  2  0  0  0  0
 30 31  2  0  0  0  0
 30116  1  0  0  0  0
 31 32  1  0  0  0  0
 31117  1  0  0  0  0
 32 33  1  0  0  0  0
 32 90  2  0  0  0  0
 33 34  1  0  0  0  0
 33 84  2  0  0  0  0
 34 35  2  0  0  0  0
 34 89  1  0  0  0  0
 35 36  1  0  0  0  0
 36 37  2  0  0  0  0
 36 88  1  0  0  0  0
 37 38  1  0  0  0  0
 37 49  1  0  0  0  0
 38 39  1  0  0  0  0
 38 47  2  0  0  0  0
 39 40  2  0  0  0  0
 39118  1  0  0  0  0
 40 41  1  0  0  0  0
 40119  1  0  0  0  0
 41 42  2  0  0  0  0
 41120  1  0  0  0  0
 42 43  1  0  0  0  0
 42 47  1  0  0  0  0
 43 44  2  0  0  0  0
 43 45  2  0  0  0  0
 43 46  1  0  0  0  0
 47 48  1  0  0  0  0
 49 50  2  0  0  0  0
 49 53  1  0  0  0  0
 50 51  1  0  0  0  0
 50121  1  0  0  0  0
 51 52  2  0  0  0  0
 51122  1  0  0  0  0
 52 53  1  0  0  0  0
 52 54  1  0  0  0  0
 53123  1  0  0  0  0
 54 55  1  0  0  0  0
 54 66  2  0  0  0  0
 55 56  1  0  0  0  0
 55 64  2  0  0  0  0
 56 57  2  0  0  0  0
 56124  1  0  0  0  0
 57 58  1  0  0  0  0
 57125  1  0  0  0  0
 58 59  2  0  0  0  0
 58126  1  0  0  0  0
 59 60  1  0  0  0  0
 59 64  1  0  0  0  0
 60 61  2  0  0  0  0
 60 62  2  0  0  0  0
 60 63  1  0  0  0  0
 64 65  1  0  0  0  0
 66 67  1  0  0  0  0
 66 87  1  0  0  0  0
 67 68  2  0  0  0  0
 68 69  1  0  0  0  0
 68 86  1  0  0  0  0
 69 70  1  0  0  0  0
 69 81  2  0  0  0  0
 70 71  1  0  0  0  0
 70 79  2  0  0  0  0
 71 72  2  0  0  0  0
 71127  1  0  0  0  0
 72 73  1  0  0  0  0
 72128  1  0  0  0  0
 73 74  2  0  0  0  0
 73129  1  0  0  0  0
 74 75  1  0  0  0  0
 74 79  1  0  0  0  0
 75 76  2  0  0  0  0
 75 77  2  0  0  0  0
 75 78  1  0  0  0  0
 79 80  1  0  0  0  0
 81 82  1  0  0  0  0
 81 85  1  0  0  0  0
 82 83  2  0  0  0  0
 82130  1  0  0  0  0
 83 84  1  0  0  0  0
 83131  1  0  0  0  0
 84 85  1  0  0  0  0
 85132  1  0  0  0  0
 86 87  2  0  0  0  0
 86133  1  0  0  0  0
 87134  1  0  0  0  0
 88 89  2  0  0  0  0
 88135  1  0  0  0  0
 89136  1  0  0  0  0
 90 91  1  0  0  0  0
 90137  1  0  0  0  0
 91138  1  0  0  0  0
 92 93  1  0  0  0  0
M  CHG  3  46  -1  63  -1  78  -1
M  END
$$$$
