6_5_408
 OpenBabel04152301373D

140150  0  0  0  0  0  0  0  0999 V2000
    1.3995    0.1218   -0.4178 C   0  0  0  0  0  0  0  0  0  0  0  0
    0.9437   -1.2413   -0.0017 C   0  0  0  0  0  0  0  0  0  0  0  0
    1.6646   -2.3924   -0.3545 C   0  0  0  0  0  0  0  0  0  0  0  0
    1.2576   -3.6498    0.1208 C   0  0  0  0  0  0  0  0  0  0  0  0
    1.9771   -4.9034   -0.2631 C   0  0  0  0  0  0  0  0  0  0  0  0
    0.1531   -3.6665    0.9587 C   0  0  0  0  0  0  0  0  0  0  0  0
   -0.3754   -4.7659    1.7959 C   0  0  0  0  0  0  0  0  0  0  0  0
    0.1597   -5.8607    1.8669 O   0  0  0  0  0  0  0  0  0  0  0  0
   -1.4724   -4.3215    2.5185 N   0  0  0  0  0  0  0  0  0  0  0  0
   -2.0648   -5.0318    3.6325 C   0  0  0  0  0  0  0  0  0  0  0  0
   -1.6386   -4.5094    5.0095 C   0  0  0  0  0  0  0  0  0  0  0  0
   -1.9257   -3.0551    5.4085 C   0  0  0  0  0  0  0  0  0  0  0  0
   -3.1806   -2.3061    4.9874 C   0  0  0  0  0  0  0  0  0  0  0  0
   -3.2801   -1.0925    5.1399 O   0  0  0  0  0  0  0  0  0  0  0  0
   -4.1696   -3.0997    4.5185 O   0  0  0  0  0  0  0  0  0  0  0  0
   -5.4549   -2.4962    4.2720 C   0  0  0  0  0  0  0  0  0  0  0  0
   -6.5969   -3.1526    5.0645 C   0  0  0  0  0  0  0  0  0  0  0  0
   -6.4843   -3.1659    6.4813 O   0  0  0  0  0  0  0  0  0  0  0  0
   -5.2968   -3.7182    7.0337 C   0  0  0  0  0  0  0  0  0  0  0  0
   -4.9596   -5.1686    6.6607 C   0  0  0  0  0  0  0  0  0  0  0  0
   -4.7800   -5.4890    5.2938 O   0  0  0  0  0  0  0  0  0  0  0  0
   -5.5639   -6.4094    4.5353 C   0  0  0  0  0  0  0  0  0  0  0  0
   -6.6249   -7.3843    5.0602 C   0  0  0  0  0  0  0  0  0  0  0  0
   -6.6984   -7.5411    6.4507 O   0  0  0  0  0  0  0  0  0  0  0  0
   -5.6181   -8.0672    7.0543 C   0  0  0  0  0  0  0  0  0  0  0  0
   -4.6249   -8.5391    6.5232 O   0  0  0  0  0  0  0  0  0  0  0  0
   -5.8294   -7.8689    8.4953 C   0  0  0  0  0  0  0  0  0  0  0  0
   -4.7993   -8.2292    9.3628 C   0  0  0  0  0  0  0  0  0  0  0  0
   -5.1224   -8.4431   10.6801 C   0  0  0  0  0  0  0  0  0  0  0  0
   -6.4573   -8.2803   11.0559 C   0  0  0  0  0  0  0  0  0  0  0  0
   -6.9175   -8.9577   12.2388 C   0  0  0  0  0  0  0  0  0  0  0  0
   -6.7520   -8.1761   13.4708 C   0  0  0  0  0  0  0  0  0  0  0  0
   -5.9166   -8.3973   14.4288 N   0  0  0  0  0  0  0  0  0  0  0  0
   -6.2004   -7.4147   15.3673 C   0  0  0  0  0  0  0  0  0  0  0  0
   -6.1068   -7.6723   16.6977 C   0  0  0  0  0  0  0  0  0  0  0  0
   -7.0148   -7.0571   17.7283 C   0  0  0  0  0  0  0  0  0  0  0  0
   -6.6414   -7.1853   19.0801 C   0  0  0  0  0  0  0  0  0  0  0  0
   -7.5282   -6.8670   20.1130 C   0  0  0  0  0  0  0  0  0  0  0  0
   -8.7793   -6.3368   19.8179 C   0  0  0  0  0  0  0  0  0  0  0  0
   -9.1575   -6.1654   18.4871 C   0  0  0  0  0  0  0  0  0  0  0  0
  -10.7462   -5.4009   18.1429 S   0  0  0  0  0  0  0  0  0  0  0  0
  -11.6690   -6.4863   18.4585 O   0  0  0  0  0  0  0  0  0  0  0  0
  -10.7522   -4.2846   19.0892 O   0  0  0  0  0  0  0  0  0  0  0  0
  -10.6821   -4.9924   16.7448 O   0  5  0  0  0  0  0  0  0  0  0  0
   -8.3197   -6.5785   17.4616 C   0  0  0  0  0  0  0  0  0  0  0  0
   -8.8247   -6.6532   16.2260 F   0  0  0  0  0  0  0  0  0  0  0  0
   -5.3539   -8.8704   16.9602 C   0  0  0  0  0  0  0  0  0  0  0  0
   -4.0769   -9.3017   16.6632 C   0  0  0  0  0  0  0  0  0  0  0  0
   -4.2105  -10.6933   16.3899 C   0  0  0  0  0  0  0  0  0  0  0  0
   -5.5469  -11.0498   16.5862 C   0  0  0  0  0  0  0  0  0  0  0  0
   -6.0737   -9.9954   17.2841 N   0  0  0  0  0  0  0  0  0  0  0  0
   -6.3198  -12.1840   16.1213 C   0  0  0  0  0  0  0  0  0  0  0  0
   -5.5317  -13.2916   15.4607 C   0  0  0  0  0  0  0  0  0  0  0  0
   -5.5218  -13.4797   14.0618 C   0  0  0  0  0  0  0  0  0  0  0  0
   -4.6384  -14.3844   13.4650 C   0  0  0  0  0  0  0  0  0  0  0  0
   -3.7224  -15.0730   14.2560 C   0  0  0  0  0  0  0  0  0  0  0  0
   -3.7134  -14.8814   15.6464 C   0  0  0  0  0  0  0  0  0  0  0  0
   -2.4161  -15.6836   16.5919 S   0  0  0  0  0  0  0  0  0  0  0  0
   -2.8870  -17.0658   16.6456 O   0  0  0  0  0  0  0  0  0  0  0  0
   -1.2368  -15.4711   15.7506 O   0  0  0  0  0  0  0  0  0  0  0  0
   -2.3644  -14.9883   17.8723 O   0  5  0  0  0  0  0  0  0  0  0  0
   -4.6254  -14.0221   16.2476 C   0  0  0  0  0  0  0  0  0  0  0  0
   -4.6442  -13.8315   17.5756 F   0  0  0  0  0  0  0  0  0  0  0  0
   -7.6820  -12.2121   16.0201 C   0  0  0  0  0  0  0  0  0  0  0  0
   -8.3190  -13.0889   15.1497 N   0  0  0  0  0  0  0  0  0  0  0  0
   -9.3997  -12.4566   14.7854 C   0  0  0  0  0  0  0  0  0  0  0  0
   -9.9365  -12.4693   13.4014 C   0  0  0  0  0  0  0  0  0  0  0  0
  -11.3592  -12.7871   13.1243 C   0  0  0  0  0  0  0  0  0  0  0  0
  -12.0173  -13.7389   13.9293 C   0  0  0  0  0  0  0  0  0  0  0  0
  -13.4143  -13.8327   13.9420 C   0  0  0  0  0  0  0  0  0  0  0  0
  -14.1743  -12.9864   13.1400 C   0  0  0  0  0  0  0  0  0  0  0  0
  -13.5371  -12.0609   12.3048 C   0  0  0  0  0  0  0  0  0  0  0  0
  -14.5875  -10.9767   11.3258 S   0  0  0  0  0  0  0  0  0  0  0  0
  -15.4883  -11.9319   10.6795 O   0  0  0  0  0  0  0  0  0  0  0  0
  -15.2093  -10.1495   12.3560 O   0  0  0  0  0  0  0  0  0  0  0  0
  -13.6960  -10.2792   10.4079 O   0  5  0  0  0  0  0  0  0  0  0  0
  -12.1486  -11.9608   12.2919 C   0  0  0  0  0  0  0  0  0  0  0  0
  -11.5476  -11.0133   11.5614 F   0  0  0  0  0  0  0  0  0  0  0  0
   -9.0366  -11.8194   12.6231 C   0  0  0  0  0  0  0  0  0  0  0  0
   -8.9344  -11.7220   11.1789 C   0  0  0  0  0  0  0  0  0  0  0  0
   -8.0018  -10.7926   10.8723 C   0  0  0  0  0  0  0  0  0  0  0  0
   -7.5439  -10.1445   12.1110 C   0  0  0  0  0  0  0  0  0  0  0  0
   -8.0514  -10.9482   13.0770 N   0  0  0  0  0  0  0  0  0  0  0  0
   -9.8179  -11.3743   15.6633 C   0  0  0  0  0  0  0  0  0  0  0  0
   -8.7027  -11.2310   16.3848 C   0  0  0  0  0  0  0  0  0  0  0  0
   -6.9390   -6.3884   14.6817 C   0  0  0  0  0  0  0  0  0  0  0  0
   -7.4591   -6.8898   13.5622 C   0  0  0  0  0  0  0  0  0  0  0  0
   -7.4104   -7.6495   10.2688 C   0  0  0  0  0  0  0  0  0  0  0  0
   -7.0850   -7.4324    8.9631 C   0  0  0  0  0  0  0  0  0  0  0  0
   -2.0228   -2.7635    2.0864 S   0  0  0  0  0  0  0  0  0  0  0  0
   -0.5571   -2.4973    1.1542 C   0  0  0  0  0  0  0  0  0  0  0  0
   -0.2033   -1.2857    0.7050 N   0  0  0  0  0  0  0  0  0  0  0  0
    2.3130    0.0396   -0.9688 H   0  0  0  0  0  0  0  0  0  0  0  0
    1.5602    0.7249    0.4513 H   0  0  0  0  0  0  0  0  0  0  0  0
    0.6512    0.5756   -1.0334 H   0  0  0  0  0  0  0  0  0  0  0  0
    2.4942   -2.3150   -0.9635 H   0  0  0  0  0  0  0  0  0  0  0  0
    2.7932   -4.6619   -0.9116 H   0  0  0  0  0  0  0  0  0  0  0  0
    1.3020   -5.5614   -0.7693 H   0  0  0  0  0  0  0  0  0  0  0  0
    2.3509   -5.3839    0.6169 H   0  0  0  0  0  0  0  0  0  0  0  0
   -1.7824   -6.0615    3.5622 H   0  0  0  0  0  0  0  0  0  0  0  0
   -3.1225   -4.8861    3.5624 H   0  0  0  0  0  0  0  0  0  0  0  0
   -0.5789   -4.6427    5.0746 H   0  0  0  0  0  0  0  0  0  0  0  0
   -2.2513   -5.0716    5.6829 H   0  0  0  0  0  0  0  0  0  0  0  0
   -1.1028   -2.4810    5.0369 H   0  0  0  0  0  0  0  0  0  0  0  0
   -2.0819   -3.1525    6.4625 H   0  0  0  0  0  0  0  0  0  0  0  0
   -5.6745   -2.5792    3.2281 H   0  0  0  0  0  0  0  0  0  0  0  0
   -5.3928   -1.4768    4.5911 H   0  0  0  0  0  0  0  0  0  0  0  0
   -6.6713   -4.1690    4.7386 H   0  0  0  0  0  0  0  0  0  0  0  0
   -7.4548   -2.5458    4.8631 H   0  0  0  0  0  0  0  0  0  0  0  0
   -5.3852   -3.6718    8.0990 H   0  0  0  0  0  0  0  0  0  0  0  0
   -4.5017   -3.1343    6.6193 H   0  0  0  0  0  0  0  0  0  0  0  0
   -5.7556   -5.7825    7.0273 H   0  0  0  0  0  0  0  0  0  0  0  0
   -3.9973   -5.3351    7.0979 H   0  0  0  0  0  0  0  0  0  0  0  0
   -4.8497   -7.0273    4.0324 H   0  0  0  0  0  0  0  0  0  0  0  0
   -6.2075   -5.7125    4.0403 H   0  0  0  0  0  0  0  0  0  0  0  0
   -6.4218   -8.3451    4.6353 H   0  0  0  0  0  0  0  0  0  0  0  0
   -7.5646   -6.9604    4.7736 H   0  0  0  0  0  0  0  0  0  0  0  0
   -3.8288   -8.3315    9.0270 H   0  0  0  0  0  0  0  0  0  0  0  0
   -4.4034   -8.7148   11.3687 H   0  0  0  0  0  0  0  0  0  0  0  0
   -5.6938   -7.5211   19.3130 H   0  0  0  0  0  0  0  0  0  0  0  0
   -7.2540   -7.0257   21.0952 H   0  0  0  0  0  0  0  0  0  0  0  0
   -9.4237   -6.0719   20.5792 H   0  0  0  0  0  0  0  0  0  0  0  0
   -3.2126   -8.7381   16.6434 H   0  0  0  0  0  0  0  0  0  0  0  0
   -3.4514  -11.3283   16.0975 H   0  0  0  0  0  0  0  0  0  0  0  0
   -6.8342  -10.0363   17.9080 H   0  0  0  0  0  0  0  0  0  0  0  0
   -6.1756  -12.9421   13.4714 H   0  0  0  0  0  0  0  0  0  0  0  0
   -4.6651  -14.5407   12.4453 H   0  0  0  0  0  0  0  0  0  0  0  0
   -3.0505  -15.7239   13.8202 H   0  0  0  0  0  0  0  0  0  0  0  0
  -11.4604  -14.3770   14.5189 H   0  0  0  0  0  0  0  0  0  0  0  0
  -13.8799  -14.5286   14.5454 H   0  0  0  0  0  0  0  0  0  0  0  0
  -15.2046  -13.0409   13.1609 H   0  0  0  0  0  0  0  0  0  0  0  0
   -9.4827  -12.2712   10.4986 H   0  0  0  0  0  0  0  0  0  0  0  0
   -7.6651  -10.5730    9.9218 H   0  0  0  0  0  0  0  0  0  0  0  0
   -7.7505  -10.9183   14.0139 H   0  0  0  0  0  0  0  0  0  0  0  0
  -10.7144  -10.8657   15.7139 H   0  0  0  0  0  0  0  0  0  0  0  0
   -8.5765  -10.5119   17.1142 H   0  0  0  0  0  0  0  0  0  0  0  0
   -7.0490   -5.4150   15.0064 H   0  0  0  0  0  0  0  0  0  0  0  0
   -8.1671   -6.4848   12.9299 H   0  0  0  0  0  0  0  0  0  0  0  0
   -8.3226   -7.3585   10.6539 H   0  0  0  0  0  0  0  0  0  0  0  0
   -7.7459   -6.9571    8.3288 H   0  0  0  0  0  0  0  0  0  0  0  0
  1  2  1  0  0  0  0
  1 93  1  0  0  0  0
  1 94  1  0  0  0  0
  1 95  1  0  0  0  0
  2  3  1  0  0  0  0
  2 92  2  0  0  0  0
  3  4  2  0  0  0  0
  3 96  1  0  0  0  0
  4  5  1  0  0  0  0
  4  6  1  0  0  0  0
  5 97  1  0  0  0  0
  5 98  1  0  0  0  0
  5 99  1  0  0  0  0
  6  7  1  0  0  0  0
  6 91  2  0  0  0  0
  7  8  2  0  0  0  0
  7  9  1  0  0  0  0
  9 10  1  0  0  0  0
  9 90  1  0  0  0  0
 10 11  1  0  0  0  0
 10100  1  0  0  0  0
 10101  1  0  0  0  0
 11 12  1  0  0  0  0
 11102  1  0  0  0  0
 11103  1  0  0  0  0
 12 13  1  0  0  0  0
 12104  1  0  0  0  0
 12105  1  0  0  0  0
 13 14  2  0  0  0  0
 13 15  1  0  0  0  0
 15 16  1  0  0  0  0
 16 17  1  0  0  0  0
 16106  1  0  0  0  0
 16107  1  0  0  0  0
 17 18  1  0  0  0  0
 17108  1  0  0  0  0
 17109  1  0  0  0  0
 18 19  1  0  0  0  0
 19 20  1  0  0  0  0
 19110  1  0  0  0  0
 19111  1  0  0  0  0
 20 21  1  0  0  0  0
 20112  1  0  0  0  0
 20113  1  0  0  0  0
 21 22  1  0  0  0  0
 22 23  1  0  0  0  0
 22114  1  0  0  0  0
 22115  1  0  0  0  0
 23 24  1  0  0  0  0
 23116  1  0  0  0  0
 23117  1  0  0  0  0
 24 25  1  0  0  0  0
 25 26  2  0  0  0  0
 25 27  1  0  0  0  0
 27 28  1  0  0  0  0
 27 89  2  0  0  0  0
 28 29  2  0  0  0  0
 28118  1  0  0  0  0
 29 30  1  0  0  0  0
 29119  1  0  0  0  0
 30 31  1  0  0  0  0
 30 88  2  0  0  0  0
 31 32  1  0  0  0  0
 31 82  2  0  0  0  0
 32 33  2  0  0  0  0
 32 87  1  0  0  0  0
 33 34  1  0  0  0  0
 34 35  2  0  0  0  0
 34 86  1  0  0  0  0
 35 36  1  0  0  0  0
 35 47  1  0  0  0  0
 36 37  1  0  0  0  0
 36 45  2  0  0  0  0
 37 38  2  0  0  0  0
 37120  1  0  0  0  0
 38 39  1  0  0  0  0
 38121  1  0  0  0  0
 39 40  2  0  0  0  0
 39122  1  0  0  0  0
 40 41  1  0  0  0  0
 40 45  1  0  0  0  0
 41 42  2  0  0  0  0
 41 43  2  0  0  0  0
 41 44  1  0  0  0  0
 45 46  1  0  0  0  0
 47 48  2  0  0  0  0
 47 51  1  0  0  0  0
 48 49  1  0  0  0  0
 48123  1  0  0  0  0
 49 50  2  0  0  0  0
 49124  1  0  0  0  0
 50 51  1  0  0  0  0
 50 52  1  0  0  0  0
 51125  1  0  0  0  0
 52 53  1  0  0  0  0
 52 64  2  0  0  0  0
 53 54  1  0  0  0  0
 53 62  2  0  0  0  0
 54 55  2  0  0  0  0
 54126  1  0  0  0  0
 55 56  1  0  0  0  0
 55127  1  0  0  0  0
 56 57  2  0  0  0  0
 56128  1  0  0  0  0
 57 58  1  0  0  0  0
 57 62  1  0  0  0  0
 58 59  2  0  0  0  0
 58 60  2  0  0  0  0
 58 61  1  0  0  0  0
 62 63  1  0  0  0  0
 64 65  1  0  0  0  0
 64 85  1  0  0  0  0
 65 66  2  0  0  0  0
 66 67  1  0  0  0  0
 66 84  1  0  0  0  0
 67 68  1  0  0  0  0
 67 79  2  0  0  0  0
 68 69  1  0  0  0  0
 68 77  2  0  0  0  0
 69 70  2  0  0  0  0
 69129  1  0  0  0  0
 70 71  1  0  0  0  0
 70130  1  0  0  0  0
 71 72  2  0  0  0  0
 71131  1  0  0  0  0
 72 73  1  0  0  0  0
 72 77  1  0  0  0  0
 73 74  2  0  0  0  0
 73 75  2  0  0  0  0
 73 76  1  0  0  0  0
 77 78  1  0  0  0  0
 79 80  1  0  0  0  0
 79 83  1  0  0  0  0
 80 81  2  0  0  0  0
 80132  1  0  0  0  0
 81 82  1  0  0  0  0
 81133  1  0  0  0  0
 82 83  1  0  0  0  0
 83134  1  0  0  0  0
 84 85  2  0  0  0  0
 84135  1  0  0  0  0
 85136  1  0  0  0  0
 86 87  2  0  0  0  0
 86137  1  0  0  0  0
 87138  1  0  0  0  0
 88 89  1  0  0  0  0
 88139  1  0  0  0  0
 89140  1  0  0  0  0
 90 91  1  0  0  0  0
 91 92  1  0  0  0  0
M  CHG  3  44  -1  61  -1  76  -1
M  END
$$$$
