6_5_57
 OpenBabel01312312313D

132142  0  0  0  0  0  0  0  0999 V2000
    2.3616    1.2298   -3.8103 O   0  0  0  0  0  0  0  0  0  0  0  0
    3.0918    1.2107   -2.8500 C   0  0  0  0  0  0  0  0  0  0  0  0
    2.9348    1.8861   -1.7007 O   0  0  0  0  0  0  0  0  0  0  0  0
    3.8916    1.4021   -0.6318 C   0  0  0  0  0  0  0  0  0  0  0  0
    4.5386   -0.6468   -0.3056 C   0  0  0  0  0  0  0  0  0  0  0  0
    3.8422   -1.7270    0.8252 O   0  0  0  0  0  0  0  0  0  0  0  0
    2.4448   -1.7647    1.3203 C   0  0  0  0  0  0  0  0  0  0  0  0
    2.1165   -1.8584    2.8198 C   0  0  0  0  0  0  0  0  0  0  0  0
    3.0563   -1.4285    3.7708 O   0  0  0  0  0  0  0  0  0  0  0  0
    4.3599   -1.9800    3.6606 C   0  0  0  0  0  0  0  0  0  0  0  0
    4.4986   -3.5068    3.6546 C   0  0  0  0  0  0  0  0  0  0  0  0
    4.0338   -4.1340    2.4450 O   0  0  0  0  0  0  0  0  0  0  0  0
    2.9596   -4.9564    2.5382 C   0  0  0  0  0  0  0  0  0  0  0  0
    2.2895   -5.1954    3.5272 O   0  0  0  0  0  0  0  0  0  0  0  0
    2.6312   -5.4482    1.1877 C   0  0  0  0  0  0  0  0  0  0  0  0
    1.3874   -5.1516    0.6067 C   0  0  0  0  0  0  0  0  0  0  0  0
    1.0890   -5.6127   -0.6776 C   0  0  0  0  0  0  0  0  0  0  0  0
    2.0040   -6.4408   -1.3377 C   0  0  0  0  0  0  0  0  0  0  0  0
    1.5900   -7.2467   -2.5068 C   0  0  0  0  0  0  0  0  0  0  0  0
    1.0611   -8.6226   -2.2308 C   0  0  0  0  0  0  0  0  0  0  0  0
    0.8129   -9.5999   -3.0580 N   0  0  0  0  0  0  0  0  0  0  0  0
    0.4249  -10.6693   -2.2619 C   0  0  0  0  0  0  0  0  0  0  0  0
    0.0775  -11.9205   -2.6397 C   0  0  0  0  0  0  0  0  0  0  0  0
   -0.2720  -12.8964   -1.5475 C   0  0  0  0  0  0  0  0  0  0  0  0
   -1.4193  -12.6982   -0.7507 C   0  0  0  0  0  0  0  0  0  0  0  0
   -1.6974  -13.5502    0.3174 C   0  0  0  0  0  0  0  0  0  0  0  0
   -0.8735  -14.6478    0.5507 C   0  0  0  0  0  0  0  0  0  0  0  0
    0.2388  -14.8865   -0.2726 C   0  0  0  0  0  0  0  0  0  0  0  0
    1.1882  -16.3750    0.0489 S   0  0  0  0  0  0  0  0  0  0  0  0
    1.8223  -16.0506    1.3260 O   0  0  0  0  0  0  0  0  0  0  0  0
    0.1399  -17.3926    0.1295 O   0  0  0  0  0  0  0  0  0  0  0  0
    2.0967  -16.5265   -1.0786 O   0  5  0  0  0  0  0  0  0  0  0  0
    0.5567  -14.0071   -1.2984 C   0  0  0  0  0  0  0  0  0  0  0  0
    1.6558  -14.1678   -2.0488 F   0  0  0  0  0  0  0  0  0  0  0  0
    0.0762  -12.3646   -4.0044 C   0  0  0  0  0  0  0  0  0  0  0  0
   -0.3098  -13.5923   -4.5077 C   0  0  0  0  0  0  0  0  0  0  0  0
   -0.0229  -13.6069   -5.8756 C   0  0  0  0  0  0  0  0  0  0  0  0
    0.4581  -12.3580   -6.2397 C   0  0  0  0  0  0  0  0  0  0  0  0
    0.5271  -11.6114   -5.0783 N   0  0  0  0  0  0  0  0  0  0  0  0
    0.8199  -11.8868   -7.5537 C   0  0  0  0  0  0  0  0  0  0  0  0
    0.5953  -12.8380   -8.7011 C   0  0  0  0  0  0  0  0  0  0  0  0
    1.6813  -13.4491   -9.3559 C   0  0  0  0  0  0  0  0  0  0  0  0
    1.4590  -14.4012  -10.3520 C   0  0  0  0  0  0  0  0  0  0  0  0
    0.1553  -14.7877  -10.6596 C   0  0  0  0  0  0  0  0  0  0  0  0
   -0.9327  -14.2005   -9.9951 C   0  0  0  0  0  0  0  0  0  0  0  0
   -2.5690  -14.8345  -10.3766 S   0  0  0  0  0  0  0  0  0  0  0  0
   -2.7400  -14.3999  -11.7624 O   0  0  0  0  0  0  0  0  0  0  0  0
   -2.3869  -16.2760  -10.2070 O   0  0  0  0  0  0  0  0  0  0  0  0
   -3.4780  -14.2189   -9.4193 O   0  5  0  0  0  0  0  0  0  0  0  0
   -0.7205  -13.2112   -9.0455 C   0  0  0  0  0  0  0  0  0  0  0  0
   -1.7393  -12.6057   -8.4181 F   0  0  0  0  0  0  0  0  0  0  0  0
    1.3094  -10.6523   -7.8298 C   0  0  0  0  0  0  0  0  0  0  0  0
    1.5308   -9.5841   -6.9664 N   0  0  0  0  0  0  0  0  0  0  0  0
    2.0008   -8.6091   -7.7073 C   0  0  0  0  0  0  0  0  0  0  0  0
    2.3642   -7.2033   -7.3034 C   0  0  0  0  0  0  0  0  0  0  0  0
    2.9594   -6.2485   -8.2795 C   0  0  0  0  0  0  0  0  0  0  0  0
    2.1679   -5.7128   -9.3128 C   0  0  0  0  0  0  0  0  0  0  0  0
    2.7030   -4.7831  -10.2065 C   0  0  0  0  0  0  0  0  0  0  0  0
    4.0158   -4.3458  -10.0436 C   0  0  0  0  0  0  0  0  0  0  0  0
    4.8060   -4.8576   -9.0027 C   0  0  0  0  0  0  0  0  0  0  0  0
    6.4397   -4.1424   -8.7897 S   0  0  0  0  0  0  0  0  0  0  0  0
    7.0950   -4.5109  -10.0425 O   0  0  0  0  0  0  0  0  0  0  0  0
    6.1269   -2.7197   -8.6529 O   0  0  0  0  0  0  0  0  0  0  0  0
    6.9940   -4.7577   -7.5916 O   0  5  0  0  0  0  0  0  0  0  0  0
    4.2972   -5.8262   -8.1472 C   0  0  0  0  0  0  0  0  0  0  0  0
    5.0344   -6.3600   -7.1633 F   0  0  0  0  0  0  0  0  0  0  0  0
    2.1541   -6.8057   -6.0316 C   0  0  0  0  0  0  0  0  0  0  0  0
    2.4893   -5.4929   -5.4784 C   0  0  0  0  0  0  0  0  0  0  0  0
    2.3063   -5.5149   -4.1465 C   0  0  0  0  0  0  0  0  0  0  0  0
    1.7979   -6.8291   -3.7658 C   0  0  0  0  0  0  0  0  0  0  0  0
    1.6588   -7.5022   -4.9549 N   0  0  0  0  0  0  0  0  0  0  0  0
    2.1717   -8.9648   -9.1239 C   0  0  0  0  0  0  0  0  0  0  0  0
    1.6996  -10.2050   -9.1513 C   0  0  0  0  0  0  0  0  0  0  0  0
    0.4695  -10.2202   -0.8888 C   0  0  0  0  0  0  0  0  0  0  0  0
    0.8069   -8.9443   -0.8158 C   0  0  0  0  0  0  0  0  0  0  0  0
    3.2466   -6.7333   -0.7464 C   0  0  0  0  0  0  0  0  0  0  0  0
    3.5643   -6.2318    0.5120 C   0  0  0  0  0  0  0  0  0  0  0  0
    3.9687    0.1704   -2.3254 C   0  0  0  0  0  0  0  0  0  0  0  0
    5.3653    0.5373   -2.1037 C   0  0  0  0  0  0  0  0  0  0  0  0
    6.0670    0.9275   -0.4919 C   0  0  0  0  0  0  0  0  0  0  0  0
    7.3737    1.3143   -0.4092 C   0  0  0  0  0  0  0  0  0  0  0  0
    7.8306    1.6268    0.8888 C   0  0  0  0  0  0  0  0  0  0  0  0
    9.5203    2.0754    0.9453 Cl  0  0  0  0  0  0  0  0  0  0  0  0
    7.0134    1.6130    2.1186 C   0  0  0  0  0  0  0  0  0  0  0  0
    7.8200    2.0617    3.6115 Cl  0  0  0  0  0  0  0  0  0  0  0  0
    5.6276    1.2689    2.1787 C   0  0  0  0  0  0  0  0  0  0  0  0
    4.6711    1.4126    3.5842 Cl  0  0  0  0  0  0  0  0  0  0  0  0
    5.1206    0.8961    0.9578 C   0  0  0  0  0  0  0  0  0  0  0  0
    3.3876    0.3089    0.8024 O   0  0  0  0  0  0  0  0  0  0  0  0
    2.7293   -0.2845   -0.9353 C   0  0  2  0  0  0  0  0  0  0  0  0
    2.4410   -1.8225   -1.5631 C   0  0  0  0  0  0  0  0  0  0  0  0
    2.6841   -2.9158   -0.8377 F   0  0  0  0  0  0  0  0  0  0  0  0
    1.1557   -1.8981   -1.9855 F   0  0  0  0  0  0  0  0  0  0  0  0
    3.1960   -2.0327   -2.6856 F   0  0  0  0  0  0  0  0  0  0  0  0
    3.4495    1.7046    0.2944 H   0  0  0  0  0  0  0  0  0  0  0  0
    4.8027    1.8170   -1.0094 H   0  0  0  0  0  0  0  0  0  0  0  0
    5.5724   -0.5805   -0.0377 H   0  0  0  0  0  0  0  0  0  0  0  0
    4.2230   -1.0976   -1.2232 H   0  0  0  0  0  0  0  0  0  0  0  0
    1.9859   -2.6141    0.8590 H   0  0  0  0  0  0  0  0  0  0  0  0
    2.0908   -0.7859    1.0723 H   0  0  0  0  0  0  0  0  0  0  0  0
    1.9143   -2.8882    3.0284 H   0  0  0  0  0  0  0  0  0  0  0  0
    1.3097   -1.1659    2.9396 H   0  0  0  0  0  0  0  0  0  0  0  0
    4.9317   -1.6120    4.4868 H   0  0  0  0  0  0  0  0  0  0  0  0
    4.6962   -1.6778    2.6908 H   0  0  0  0  0  0  0  0  0  0  0  0
    3.9342   -3.8988    4.4748 H   0  0  0  0  0  0  0  0  0  0  0  0
    5.5438   -3.7222    3.7321 H   0  0  0  0  0  0  0  0  0  0  0  0
    0.6941   -4.5931    1.1286 H   0  0  0  0  0  0  0  0  0  0  0  0
    0.2032   -5.3456   -1.1349 H   0  0  0  0  0  0  0  0  0  0  0  0
   -2.0585  -11.9155   -0.9603 H   0  0  0  0  0  0  0  0  0  0  0  0
   -2.5077  -13.3686    0.9302 H   0  0  0  0  0  0  0  0  0  0  0  0
   -1.0811  -15.2890    1.3323 H   0  0  0  0  0  0  0  0  0  0  0  0
   -0.7350  -14.3627   -3.9686 H   0  0  0  0  0  0  0  0  0  0  0  0
   -0.1480  -14.4122   -6.5087 H   0  0  0  0  0  0  0  0  0  0  0  0
    0.8487  -10.6826   -5.0218 H   0  0  0  0  0  0  0  0  0  0  0  0
    2.6469  -13.1918   -9.0981 H   0  0  0  0  0  0  0  0  0  0  0  0
    2.2561  -14.8172  -10.8585 H   0  0  0  0  0  0  0  0  0  0  0  0
   -0.0105  -15.5087  -11.3791 H   0  0  0  0  0  0  0  0  0  0  0  0
    1.1843   -6.0095   -9.4106 H   0  0  0  0  0  0  0  0  0  0  0  0
    2.1288   -4.4215  -10.9841 H   0  0  0  0  0  0  0  0  0  0  0  0
    4.4082   -3.6436  -10.6901 H   0  0  0  0  0  0  0  0  0  0  0  0
    2.8145   -4.6795   -6.0239 H   0  0  0  0  0  0  0  0  0  0  0  0
    2.4942   -4.7323   -3.5005 H   0  0  0  0  0  0  0  0  0  0  0  0
    1.2463   -8.3930   -5.0287 H   0  0  0  0  0  0  0  0  0  0  0  0
    2.5578   -8.3982   -9.8952 H   0  0  0  0  0  0  0  0  0  0  0  0
    1.6205  -10.7781  -10.0059 H   0  0  0  0  0  0  0  0  0  0  0  0
    0.2648  -10.8174   -0.0724 H   0  0  0  0  0  0  0  0  0  0  0  0
    0.8745   -8.3342    0.0138 H   0  0  0  0  0  0  0  0  0  0  0  0
    3.9272   -7.3239   -1.2495 H   0  0  0  0  0  0  0  0  0  0  0  0
    4.4805   -6.4379    0.9399 H   0  0  0  0  0  0  0  0  0  0  0  0
    5.9903    0.5753   -2.9241 H   0  0  0  0  0  0  0  0  0  0  0  0
    7.9850    1.3740   -1.2385 H   0  0  0  0  0  0  0  0  0  0  0  0
    1.7808    0.1480   -0.6942 H   0  0  0  0  0  0  0  0  0  0  0  0
  1  2  2  0  0  0  0
  2  3  1  0  0  0  0
  2 78  1  0  0  0  0
  3  4  1  0  0  0  0
  4  5  1  0  0  0  0
  4 95  1  0  0  0  0
  4 96  1  0  0  0  0
  5  6  1  0  0  0  0
  5 97  1  0  0  0  0
  5 98  1  0  0  0  0
  6  7  1  0  0  0  0
  7  8  1  0  0  0  0
  7 99  1  0  0  0  0
  7100  1  0  0  0  0
  8  9  1  0  0  0  0
  8101  1  0  0  0  0
  8102  1  0  0  0  0
  9 10  1  0  0  0  0
 10 11  1  0  0  0  0
 10103  1  0  0  0  0
 10104  1  0  0  0  0
 11 12  1  0  0  0  0
 11105  1  0  0  0  0
 11106  1  0  0  0  0
 12 13  1  0  0  0  0
 13 14  2  0  0  0  0
 13 15  1  0  0  0  0
 15 16  1  0  0  0  0
 15 77  2  0  0  0  0
 16 17  2  0  0  0  0
 16107  1  0  0  0  0
 17 18  1  0  0  0  0
 17108  1  0  0  0  0
 18 19  1  0  0  0  0
 18 76  2  0  0  0  0
 19 20  1  0  0  0  0
 19 70  2  0  0  0  0
 20 21  2  0  0  0  0
 20 75  1  0  0  0  0
 21 22  1  0  0  0  0
 22 23  2  0  0  0  0
 22 74  1  0  0  0  0
 23 24  1  0  0  0  0
 23 35  1  0  0  0  0
 24 25  1  0  0  0  0
 24 33  2  0  0  0  0
 25 26  2  0  0  0  0
 25109  1  0  0  0  0
 26 27  1  0  0  0  0
 26110  1  0  0  0  0
 27 28  2  0  0  0  0
 27111  1  0  0  0  0
 28 29  1  0  0  0  0
 28 33  1  0  0  0  0
 29 30  2  0  0  0  0
 29 31  2  0  0  0  0
 29 32  1  0  0  0  0
 33 34  1  0  0  0  0
 35 36  2  0  0  0  0
 35 39  1  0  0  0  0
 36 37  1  0  0  0  0
 36112  1  0  0  0  0
 37 38  2  0  0  0  0
 37113  1  0  0  0  0
 38 39  1  0  0  0  0
 38 40  1  0  0  0  0
 39114  1  0  0  0  0
 40 41  1  0  0  0  0
 40 52  2  0  0  0  0
 41 42  1  0  0  0  0
 41 50  2  0  0  0  0
 42 43  2  0  0  0  0
 42115  1  0  0  0  0
 43 44  1  0  0  0  0
 43116  1  0  0  0  0
 44 45  2  0  0  0  0
 44117  1  0  0  0  0
 45 46  1  0  0  0  0
 45 50  1  0  0  0  0
 46 47  2  0  0  0  0
 46 48  2  0  0  0  0
 46 49  1  0  0  0  0
 50 51  1  0  0  0  0
 52 53  1  0  0  0  0
 52 73  1  0  0  0  0
 53 54  2  0  0  0  0
 54 55  1  0  0  0  0
 54 72  1  0  0  0  0
 55 56  1  0  0  0  0
 55 67  2  0  0  0  0
 56 57  1  0  0  0  0
 56 65  2  0  0  0  0
 57 58  2  0  0  0  0
 57118  1  0  0  0  0
 58 59  1  0  0  0  0
 58119  1  0  0  0  0
 59 60  2  0  0  0  0
 59120  1  0  0  0  0
 60 61  1  0  0  0  0
 60 65  1  0  0  0  0
 61 62  2  0  0  0  0
 61 63  2  0  0  0  0
 61 64  1  0  0  0  0
 65 66  1  0  0  0  0
 67 68  1  0  0  0  0
 67 71  1  0  0  0  0
 68 69  2  0  0  0  0
 68121  1  0  0  0  0
 69 70  1  0  0  0  0
 69122  1  0  0  0  0
 70 71  1  0  0  0  0
 71123  1  0  0  0  0
 72 73  2  0  0  0  0
 72124  1  0  0  0  0
 73125  1  0  0  0  0
 74 75  2  0  0  0  0
 74126  1  0  0  0  0
 75127  1  0  0  0  0
 76 77  1  0  0  0  0
 76128  1  0  0  0  0
 77129  1  0  0  0  0
 78 79  2  0  0  0  0
 78 90  1  0  0  0  0
 79 80  1  0  0  0  0
 79130  1  0  0  0  0
 80 81  1  0  0  0  0
 80 88  2  0  0  0  0
 81 82  2  0  0  0  0
 81131  1  0  0  0  0
 82 83  1  0  0  0  0
 82 84  1  0  0  0  0
 84 85  1  0  0  0  0
 84 86  2  0  0  0  0
 86 87  1  0  0  0  0
 86 88  1  0  0  0  0
 88 89  1  0  0  0  0
 89 90  1  0  0  0  0
 90 91  1  0  0  0  0
 90132  1  6  0  0  0
 91 92  1  0  0  0  0
 91 93  1  0  0  0  0
 91 94  1  0  0  0  0
M  CHG  3  32  -1  49  -1  64  -1
M  END
$$$$
