6_5_6903
 OpenBabel04152301363D

152163  0  0  1  0  0  0  0  0999 V2000
    1.2014   -0.5350    0.7983 C   0  0  0  0  0  0  0  0  0  0  0  0
    0.2044    0.3842    0.1206 C   0  0  0  0  0  0  0  0  0  0  0  0
    0.3013    0.4631   -1.3743 C   0  0  0  0  0  0  0  0  0  0  0  0
    0.0082    1.5762   -2.1323 C   0  0  0  0  0  0  0  0  0  0  0  0
    0.0423    1.2956   -3.5167 C   0  0  0  0  0  0  0  0  0  0  0  0
    0.5217    0.0359   -3.8045 C   0  0  0  0  0  0  0  0  0  0  0  0
    0.9079   -0.7490   -5.3624 S   0  0  0  0  0  0  0  0  0  0  0  0
    1.8995   -1.7628   -5.0591 O   0  0  0  0  0  0  0  0  0  0  0  0
   -0.3788   -1.0724   -5.9251 O   0  0  0  0  0  0  0  0  0  0  0  0
    1.6481    0.4268   -6.3325 N   0  0  0  0  0  0  0  0  0  0  0  0
    0.8720    1.3483   -7.1549 C   0  0  0  0  0  0  0  0  0  0  0  0
    0.9151    2.7756   -6.6116 C   0  0  0  0  0  0  0  0  0  0  0  0
    2.2702    3.2779   -5.9784 C   0  0  0  0  0  0  0  0  0  0  0  0
    3.0718    2.1401   -5.3283 C   0  0  0  0  0  0  0  0  0  0  0  0
    3.0259    0.8429   -6.0965 C   0  0  0  0  0  0  0  0  0  0  0  0
    1.9555    4.2029   -4.8977 N   0  0  0  0  0  0  0  0  0  0  0  0
    1.9112    5.5171   -5.2747 C   0  0  0  0  0  0  0  0  0  0  0  0
    1.6175    6.4380   -4.5354 O   0  0  0  0  0  0  0  0  0  0  0  0
    2.2216    5.5891   -6.7409 C   0  0  0  0  0  0  0  0  0  0  0  0
    2.9173    4.2317   -7.0253 C   0  0  1  0  0  0  0  0  0  0  0  0
    4.3742    4.5815   -7.2733 C   0  0  0  0  0  0  0  0  0  0  0  0
    4.6858    5.0894   -8.3485 O   0  0  0  0  0  0  0  0  0  0  0  0
    5.2378    4.4190   -6.2469 O   0  0  0  0  0  0  0  0  0  0  0  0
    6.5394    5.0241   -6.4657 C   0  0  0  0  0  0  0  0  0  0  0  0
    7.6598    4.0939   -6.9518 C   0  0  0  0  0  0  0  0  0  0  0  0
    7.4850    3.5560   -8.2502 O   0  0  0  0  0  0  0  0  0  0  0  0
    6.7273    2.3682   -8.4436 C   0  0  0  0  0  0  0  0  0  0  0  0
    6.1798    1.6093   -7.2406 C   0  0  0  0  0  0  0  0  0  0  0  0
    7.1689    1.3019   -6.2698 O   0  0  0  0  0  0  0  0  0  0  0  0
    6.9884    0.0451   -5.6247 C   0  0  0  0  0  0  0  0  0  0  0  0
    7.6853   -1.0488   -6.4407 C   0  0  0  0  0  0  0  0  0  0  0  0
    7.0543   -1.3060   -7.7123 O   0  0  0  0  0  0  0  0  0  0  0  0
    5.8330   -1.8861   -7.6368 C   0  0  0  0  0  0  0  0  0  0  0  0
    5.2533   -2.2159   -6.6171 O   0  0  0  0  0  0  0  0  0  0  0  0
    5.1945   -1.8419   -8.9641 C   0  0  0  0  0  0  0  0  0  0  0  0
    4.0690   -1.0288   -9.1206 C   0  0  0  0  0  0  0  0  0  0  0  0
    3.3758   -0.9817  -10.3217 C   0  0  0  0  0  0  0  0  0  0  0  0
    3.7911   -1.7864  -11.3808 C   0  0  0  0  0  0  0  0  0  0  0  0
    2.9425   -1.8994  -12.5895 C   0  0  0  0  0  0  0  0  0  0  0  0
    2.2341   -3.1960  -12.8464 C   0  0  0  0  0  0  0  0  0  0  0  0
    1.6473   -3.6173  -13.9328 N   0  0  0  0  0  0  0  0  0  0  0  0
    1.2490   -4.9196  -13.6598 C   0  0  0  0  0  0  0  0  0  0  0  0
    0.6238   -5.7957  -14.4796 C   0  0  0  0  0  0  0  0  0  0  0  0
    0.3910   -7.1880  -13.9593 C   0  0  0  0  0  0  0  0  0  0  0  0
   -0.5816   -7.4242  -12.9678 C   0  0  0  0  0  0  0  0  0  0  0  0
   -0.7805   -8.7092  -12.4628 C   0  0  0  0  0  0  0  0  0  0  0  0
   -0.0486   -9.7740  -12.9831 C   0  0  0  0  0  0  0  0  0  0  0  0
    0.8983   -9.5542  -13.9960 C   0  0  0  0  0  0  0  0  0  0  0  0
    1.7380  -10.9952  -14.6623 S   0  0  0  0  0  0  0  0  0  0  0  0
    2.6749  -11.3157  -13.5868 O   0  0  0  0  0  0  0  0  0  0  0  0
    0.6390  -11.9490  -14.8177 O   0  0  0  0  0  0  0  0  0  0  0  0
    2.3428  -10.5619  -15.9142 O   0  5  0  0  0  0  0  0  0  0  0  0
    1.1353   -8.2699  -14.4699 C   0  0  0  0  0  0  0  0  0  0  0  0
    2.0770   -8.0211  -15.3914 F   0  0  0  0  0  0  0  0  0  0  0  0
    0.1940   -5.4732  -15.8123 C   0  0  0  0  0  0  0  0  0  0  0  0
   -0.4797   -6.2728  -16.7170 C   0  0  0  0  0  0  0  0  0  0  0  0
   -0.6631   -5.5382  -17.8932 C   0  0  0  0  0  0  0  0  0  0  0  0
   -0.1307   -4.2711  -17.7097 C   0  0  0  0  0  0  0  0  0  0  0  0
    0.3961   -4.2484  -16.4311 N   0  0  0  0  0  0  0  0  0  0  0  0
   -0.0919   -3.1726  -18.6418 C   0  0  0  0  0  0  0  0  0  0  0  0
   -0.6871   -3.4072  -20.0048 C   0  0  0  0  0  0  0  0  0  0  0  0
    0.1565   -3.5994  -21.1159 C   0  0  0  0  0  0  0  0  0  0  0  0
   -0.3809   -3.8918  -22.3690 C   0  0  0  0  0  0  0  0  0  0  0  0
   -1.7590   -4.0423  -22.5091 C   0  0  0  0  0  0  0  0  0  0  0  0
   -2.6066   -3.8736  -21.4022 C   0  0  0  0  0  0  0  0  0  0  0  0
   -4.3576   -4.1853  -21.6541 S   0  0  0  0  0  0  0  0  0  0  0  0
   -4.7560   -3.0227  -22.4461 O   0  0  0  0  0  0  0  0  0  0  0  0
   -4.3444   -5.4498  -22.3902 O   0  0  0  0  0  0  0  0  0  0  0  0
   -4.9478   -4.2657  -20.3247 O   0  5  0  0  0  0  0  0  0  0  0  0
   -2.0816   -3.5337  -20.1619 C   0  0  0  0  0  0  0  0  0  0  0  0
   -2.8660   -3.3284  -19.0938 F   0  0  0  0  0  0  0  0  0  0  0  0
    0.4497   -1.9549  -18.3908 C   0  0  0  0  0  0  0  0  0  0  0  0
    1.0387   -1.4794  -17.2246 N   0  0  0  0  0  0  0  0  0  0  0  0
    1.4389   -0.2596  -17.4933 C   0  0  0  0  0  0  0  0  0  0  0  0
    2.1104    0.7373  -16.5870 C   0  0  0  0  0  0  0  0  0  0  0  0
    2.5130    2.0842  -17.0824 C   0  0  0  0  0  0  0  0  0  0  0  0
    1.5262    3.0370  -17.3966 C   0  0  0  0  0  0  0  0  0  0  0  0
    1.8854    4.3113  -17.8394 C   0  0  0  0  0  0  0  0  0  0  0  0
    3.2313    4.6601  -17.9207 C   0  0  0  0  0  0  0  0  0  0  0  0
    4.2230    3.7260  -17.5861 C   0  0  0  0  0  0  0  0  0  0  0  0
    5.9244    4.3027  -17.5827 S   0  0  0  0  0  0  0  0  0  0  0  0
    6.1885    4.4625  -19.0102 O   0  0  0  0  0  0  0  0  0  0  0  0
    5.8151    5.5538  -16.8316 O   0  0  0  0  0  0  0  0  0  0  0  0
    6.6910    3.2629  -16.9099 O   0  5  0  0  0  0  0  0  0  0  0  0
    3.8725    2.4374  -17.2032 C   0  0  0  0  0  0  0  0  0  0  0  0
    4.7970    1.5089  -16.9199 F   0  0  0  0  0  0  0  0  0  0  0  0
    2.3765    0.3867  -15.3131 C   0  0  0  0  0  0  0  0  0  0  0  0
    3.0782    1.2147  -14.3360 C   0  0  0  0  0  0  0  0  0  0  0  0
    3.3638    0.4685  -13.2567 C   0  0  0  0  0  0  0  0  0  0  0  0
    2.7975   -0.8672  -13.4397 C   0  0  0  0  0  0  0  0  0  0  0  0
    2.1540   -0.7979  -14.6507 N   0  0  0  0  0  0  0  0  0  0  0  0
    1.1710    0.1692  -18.8734 C   0  0  0  0  0  0  0  0  0  0  0  0
    0.5272   -0.8827  -19.3626 C   0  0  0  0  0  0  0  0  0  0  0  0
    1.6359   -5.2075  -12.2958 C   0  0  0  0  0  0  0  0  0  0  0  0
    2.1958   -4.1511  -11.7262 C   0  0  0  0  0  0  0  0  0  0  0  0
    4.9367   -2.5950  -11.2302 C   0  0  0  0  0  0  0  0  0  0  0  0
    5.6423   -2.6246  -10.0219 C   0  0  0  0  0  0  0  0  0  0  0  0
    0.7059   -0.8759   -2.3690 S   0  0  0  0  0  0  0  0  0  0  0  0
    1.0432   -0.5148    1.8563 H   0  0  0  0  0  0  0  0  0  0  0  0
    2.1958   -0.2056    0.5800 H   0  0  0  0  0  0  0  0  0  0  0  0
    1.0689   -1.5334    0.4369 H   0  0  0  0  0  0  0  0  0  0  0  0
    0.3481    1.3698    0.5115 H   0  0  0  0  0  0  0  0  0  0  0  0
   -0.7603   -0.0296    0.3281 H   0  0  0  0  0  0  0  0  0  0  0  0
   -0.2101    2.5038   -1.7361 H   0  0  0  0  0  0  0  0  0  0  0  0
   -0.2613    1.9665   -4.2397 H   0  0  0  0  0  0  0  0  0  0  0  0
   -0.1455    1.0179   -7.1776 H   0  0  0  0  0  0  0  0  0  0  0  0
    1.2988    1.3552   -8.1361 H   0  0  0  0  0  0  0  0  0  0  0  0
    0.1612    2.8531   -5.8563 H   0  0  0  0  0  0  0  0  0  0  0  0
    0.7710    3.3968   -7.4708 H   0  0  0  0  0  0  0  0  0  0  0  0
    2.6763    1.9660   -4.3495 H   0  0  0  0  0  0  0  0  0  0  0  0
    4.0948    2.4531   -5.3087 H   0  0  0  0  0  0  0  0  0  0  0  0
    3.5180    0.9752   -7.0374 H   0  0  0  0  0  0  0  0  0  0  0  0
    3.5177    0.0869   -5.5208 H   0  0  0  0  0  0  0  0  0  0  0  0
    1.7887    3.9070   -3.9737 H   0  0  0  0  0  0  0  0  0  0  0  0
    2.8767    6.4078   -6.9543 H   0  0  0  0  0  0  0  0  0  0  0  0
    1.3534    5.7495   -7.3454 H   0  0  0  0  0  0  0  0  0  0  0  0
    2.7980    3.6152   -7.8917 H   0  0  0  0  0  0  0  0  0  0  0  0
    6.8559    5.4561   -5.5393 H   0  0  0  0  0  0  0  0  0  0  0  0
    6.3929    5.7263   -7.2597 H   0  0  0  0  0  0  0  0  0  0  0  0
    7.7324    3.2776   -6.2638 H   0  0  0  0  0  0  0  0  0  0  0  0
    8.5423    4.6970   -6.9999 H   0  0  0  0  0  0  0  0  0  0  0  0
    7.3534    1.6863   -8.9801 H   0  0  0  0  0  0  0  0  0  0  0  0
    5.8443    2.7173   -8.9369 H   0  0  0  0  0  0  0  0  0  0  0  0
    5.7471    0.6935   -7.5856 H   0  0  0  0  0  0  0  0  0  0  0  0
    5.4598    2.2441   -6.7678 H   0  0  0  0  0  0  0  0  0  0  0  0
    5.9433   -0.1732   -5.5537 H   0  0  0  0  0  0  0  0  0  0  0  0
    7.4108    0.0829   -4.6423 H   0  0  0  0  0  0  0  0  0  0  0  0
    7.6787   -1.9537   -5.8698 H   0  0  0  0  0  0  0  0  0  0  0  0
    8.6781   -0.7060   -6.6448 H   0  0  0  0  0  0  0  0  0  0  0  0
    3.7471   -0.4522   -8.3276 H   0  0  0  0  0  0  0  0  0  0  0  0
    2.5612   -0.3573  -10.4295 H   0  0  0  0  0  0  0  0  0  0  0  0
   -1.1513   -6.6405  -12.6124 H   0  0  0  0  0  0  0  0  0  0  0  0
   -1.4658   -8.8700  -11.7082 H   0  0  0  0  0  0  0  0  0  0  0  0
   -0.2031  -10.7285  -12.6225 H   0  0  0  0  0  0  0  0  0  0  0  0
   -0.7927   -7.2424  -16.5531 H   0  0  0  0  0  0  0  0  0  0  0  0
   -1.1183   -5.8817  -18.7533 H   0  0  0  0  0  0  0  0  0  0  0  0
    0.8482   -3.4762  -16.0204 H   0  0  0  0  0  0  0  0  0  0  0  0
    1.1794   -3.5233  -21.0020 H   0  0  0  0  0  0  0  0  0  0  0  0
    0.2385   -3.9961  -23.1878 H   0  0  0  0  0  0  0  0  0  0  0  0
   -2.1587   -4.2789  -23.4307 H   0  0  0  0  0  0  0  0  0  0  0  0
    0.5286    2.7917  -17.2989 H   0  0  0  0  0  0  0  0  0  0  0  0
    1.1567    4.9920  -18.1054 H   0  0  0  0  0  0  0  0  0  0  0  0
    3.4997    5.6081  -18.2278 H   0  0  0  0  0  0  0  0  0  0  0  0
    3.3161    2.2118  -14.4556 H   0  0  0  0  0  0  0  0  0  0  0  0
    3.8965    0.7862  -12.4319 H   0  0  0  0  0  0  0  0  0  0  0  0
    1.5910   -1.5221  -15.0082 H   0  0  0  0  0  0  0  0  0  0  0  0
    1.4187    1.0559  -19.3396 H   0  0  0  0  0  0  0  0  0  0  0  0
    0.1317   -0.9312  -20.3146 H   0  0  0  0  0  0  0  0  0  0  0  0
    1.4942   -6.1165  -11.8282 H   0  0  0  0  0  0  0  0  0  0  0  0
    2.5197   -4.0294  -10.7540 H   0  0  0  0  0  0  0  0  0  0  0  0
    5.2592   -3.1729  -12.0220 H   0  0  0  0  0  0  0  0  0  0  0  0
    6.4807   -3.2174   -9.9181 H   0  0  0  0  0  0  0  0  0  0  0  0
  1  2  1  0  0  0  0
  1 99  1  0  0  0  0
  1100  1  0  0  0  0
  1101  1  0  0  0  0
  2  3  1  0  0  0  0
  2102  1  0  0  0  0
  2103  1  0  0  0  0
  3  4  2  0  0  0  0
  3 98  1  0  0  0  0
  4  5  1  0  0  0  0
  4104  1  0  0  0  0
  5  6  2  0  0  0  0
  5105  1  0  0  0  0
  6  7  1  0  0  0  0
  6 98  1  0  0  0  0
  7  8  2  0  0  0  0
  7  9  2  0  0  0  0
  7 10  1  0  0  0  0
 10 11  1  0  0  0  0
 10 15  1  0  0  0  0
 11 12  1  0  0  0  0
 11106  1  0  0  0  0
 11107  1  0  0  0  0
 12 13  1  0  0  0  0
 12108  1  0  0  0  0
 12109  1  0  0  0  0
 13 14  1  0  0  0  0
 13 16  1  0  0  0  0
 13 20  1  0  0  0  0
 14 15  1  0  0  0  0
 14110  1  0  0  0  0
 14111  1  0  0  0  0
 15112  1  0  0  0  0
 15113  1  0  0  0  0
 16 17  1  0  0  0  0
 16114  1  0  0  0  0
 17 18  2  0  0  0  0
 17 19  1  0  0  0  0
 19 20  1  0  0  0  0
 19115  1  0  0  0  0
 19116  1  0  0  0  0
 20 21  1  0  0  0  0
 20117  1  6  0  0  0
 21 22  2  0  0  0  0
 21 23  1  0  0  0  0
 23 24  1  0  0  0  0
 24 25  1  0  0  0  0
 24118  1  0  0  0  0
 24119  1  0  0  0  0
 25 26  1  0  0  0  0
 25120  1  0  0  0  0
 25121  1  0  0  0  0
 26 27  1  0  0  0  0
 27 28  1  0  0  0  0
 27122  1  0  0  0  0
 27123  1  0  0  0  0
 28 29  1  0  0  0  0
 28124  1  0  0  0  0
 28125  1  0  0  0  0
 29 30  1  0  0  0  0
 30 31  1  0  0  0  0
 30126  1  0  0  0  0
 30127  1  0  0  0  0
 31 32  1  0  0  0  0
 31128  1  0  0  0  0
 31129  1  0  0  0  0
 32 33  1  0  0  0  0
 33 34  2  0  0  0  0
 33 35  1  0  0  0  0
 35 36  1  0  0  0  0
 35 97  2  0  0  0  0
 36 37  2  0  0  0  0
 36130  1  0  0  0  0
 37 38  1  0  0  0  0
 37131  1  0  0  0  0
 38 39  1  0  0  0  0
 38 96  2  0  0  0  0
 39 40  1  0  0  0  0
 39 90  2  0  0  0  0
 40 41  2  0  0  0  0
 40 95  1  0  0  0  0
 41 42  1  0  0  0  0
 42 43  2  0  0  0  0
 42 94  1  0  0  0  0
 43 44  1  0  0  0  0
 43 55  1  0  0  0  0
 44 45  1  0  0  0  0
 44 53  2  0  0  0  0
 45 46  2  0  0  0  0
 45132  1  0  0  0  0
 46 47  1  0  0  0  0
 46133  1  0  0  0  0
 47 48  2  0  0  0  0
 47134  1  0  0  0  0
 48 49  1  0  0  0  0
 48 53  1  0  0  0  0
 49 50  2  0  0  0  0
 49 51  2  0  0  0  0
 49 52  1  0  0  0  0
 53 54  1  0  0  0  0
 55 56  2  0  0  0  0
 55 59  1  0  0  0  0
 56 57  1  0  0  0  0
 56135  1  0  0  0  0
 57 58  2  0  0  0  0
 57136  1  0  0  0  0
 58 59  1  0  0  0  0
 58 60  1  0  0  0  0
 59137  1  0  0  0  0
 60 61  1  0  0  0  0
 60 72  2  0  0  0  0
 61 62  1  0  0  0  0
 61 70  2  0  0  0  0
 62 63  2  0  0  0  0
 62138  1  0  0  0  0
 63 64  1  0  0  0  0
 63139  1  0  0  0  0
 64 65  2  0  0  0  0
 64140  1  0  0  0  0
 65 66  1  0  0  0  0
 65 70  1  0  0  0  0
 66 67  2  0  0  0  0
 66 68  2  0  0  0  0
 66 69  1  0  0  0  0
 70 71  1  0  0  0  0
 72 73  1  0  0  0  0
 72 93  1  0  0  0  0
 73 74  2  0  0  0  0
 74 75  1  0  0  0  0
 74 92  1  0  0  0  0
 75 76  1  0  0  0  0
 75 87  2  0  0  0  0
 76 77  1  0  0  0  0
 76 85  2  0  0  0  0
 77 78  2  0  0  0  0
 77141  1  0  0  0  0
 78 79  1  0  0  0  0
 78142  1  0  0  0  0
 79 80  2  0  0  0  0
 79143  1  0  0  0  0
 80 81  1  0  0  0  0
 80 85  1  0  0  0  0
 81 82  2  0  0  0  0
 81 83  2  0  0  0  0
 81 84  1  0  0  0  0
 85 86  1  0  0  0  0
 87 88  1  0  0  0  0
 87 91  1  0  0  0  0
 88 89  2  0  0  0  0
 88144  1  0  0  0  0
 89 90  1  0  0  0  0
 89145  1  0  0  0  0
 90 91  1  0  0  0  0
 91146  1  0  0  0  0
 92 93  2  0  0  0  0
 92147  1  0  0  0  0
 93148  1  0  0  0  0
 94 95  2  0  0  0  0
 94149  1  0  0  0  0
 95150  1  0  0  0  0
 96 97  1  0  0  0  0
 96151  1  0  0  0  0
 97152  1  0  0  0  0
M  CHG  3  52  -1  69  -1  84  -1
M  END
$$$$
