6_6_1963
 OpenBabel04152301373D

153163  0  0  1  0  0  0  0  0999 V2000
    1.1641    0.6669    1.0658 C   0  0  0  0  0  0  0  0  0  0  0  0
    0.0819   -0.2306    0.4939 C   0  0  0  0  0  0  0  0  0  0  0  0
    0.4434   -1.3068   -0.5662 C   0  0  2  0  0  0  0  0  0  0  0  0
    0.7028   -0.9615   -1.9582 N   0  0  0  0  0  0  0  0  0  0  0  0
    0.8516   -1.9706   -2.9540 C   0  0  0  0  0  0  0  0  0  0  0  0
    0.1945   -1.8300   -3.9894 O   0  0  0  0  0  0  0  0  0  0  0  0
    1.8923   -3.0458   -2.8349 C   0  0  0  0  0  0  0  0  0  0  0  0
    3.1780   -2.6379   -2.9742 N   0  0  0  0  0  0  0  0  0  0  0  0
    3.8887   -3.7664   -3.1008 N   0  0  0  0  0  0  0  0  0  0  0  0
    5.2858   -3.7072   -3.4503 C   0  0  0  0  0  0  0  0  0  0  0  0
    3.1759   -4.8931   -2.8980 C   0  0  0  0  0  0  0  0  0  0  0  0
    1.8594   -4.5089   -2.7220 C   0  0  0  0  0  0  0  0  0  0  0  0
    0.8560   -5.5494   -2.4697 C   0  0  0  0  0  0  0  0  0  0  0  0
   -0.0991   -5.7815   -3.1966 O   0  0  0  0  0  0  0  0  0  0  0  0
    1.1580   -6.2449   -1.3079 O   0  0  0  0  0  0  0  0  0  0  0  0
    0.3311   -7.3485   -0.8252 C   0  0  0  0  0  0  0  0  0  0  0  0
    0.1054   -7.3004    0.7216 C   0  0  0  0  0  0  0  0  0  0  0  0
   -0.7889   -6.2683    1.1403 O   0  0  0  0  0  0  0  0  0  0  0  0
   -0.3261   -5.1666    1.9277 C   0  0  0  0  0  0  0  0  0  0  0  0
    1.1393   -4.7387    1.7741 C   0  0  0  0  0  0  0  0  0  0  0  0
    2.0512   -5.1194    2.7826 O   0  0  0  0  0  0  0  0  0  0  0  0
    1.5326   -5.8503    3.8677 C   0  0  0  0  0  0  0  0  0  0  0  0
    0.8356   -5.0320    4.9796 C   0  0  0  0  0  0  0  0  0  0  0  0
    0.9920   -3.6258    5.0867 O   0  0  0  0  0  0  0  0  0  0  0  0
    2.2250   -3.0054    4.7662 C   0  0  0  0  0  0  0  0  0  0  0  0
    3.5258   -3.4298    5.4669 C   0  0  0  0  0  0  0  0  0  0  0  0
    3.7936   -4.8358    5.4770 O   0  0  0  0  0  0  0  0  0  0  0  0
    3.5002   -5.5071    6.6206 C   0  0  0  0  0  0  0  0  0  0  0  0
    3.0671   -5.0379    7.6609 O   0  0  0  0  0  0  0  0  0  0  0  0
    3.5295   -6.9546    6.3036 C   0  0  0  0  0  0  0  0  0  0  0  0
    2.3548   -7.7043    6.4957 C   0  0  0  0  0  0  0  0  0  0  0  0
    2.2646   -9.0028    6.0026 C   0  0  0  0  0  0  0  0  0  0  0  0
    3.3914   -9.5951    5.4217 C   0  0  0  0  0  0  0  0  0  0  0  0
    3.4440  -11.0691    5.3359 C   0  0  0  0  0  0  0  0  0  0  0  0
    3.9013  -11.7883    6.5750 C   0  0  0  0  0  0  0  0  0  0  0  0
    4.1038  -13.0614    6.7676 N   0  0  0  0  0  0  0  0  0  0  0  0
    4.5486  -13.1713    8.0791 C   0  0  0  0  0  0  0  0  0  0  0  0
    4.9094  -14.2836    8.7530 C   0  0  0  0  0  0  0  0  0  0  0  0
    5.3713  -14.1245   10.1726 C   0  0  0  0  0  0  0  0  0  0  0  0
    4.4366  -13.8562   11.1920 C   0  0  0  0  0  0  0  0  0  0  0  0
    4.8496  -13.7560   12.5196 C   0  0  0  0  0  0  0  0  0  0  0  0
    6.1893  -13.9652   12.8391 C   0  0  0  0  0  0  0  0  0  0  0  0
    7.1249  -14.2462   11.8294 C   0  0  0  0  0  0  0  0  0  0  0  0
    8.8104  -14.5751   12.3516 S   0  0  0  0  0  0  0  0  0  0  0  0
    9.2042  -13.2819   12.9099 O   0  0  0  0  0  0  0  0  0  0  0  0
    8.6191  -15.6349   13.3411 O   0  0  0  0  0  0  0  0  0  0  0  0
    9.5346  -14.9768   11.1539 O   0  5  0  0  0  0  0  0  0  0  0  0
    6.7285  -14.3019   10.5006 C   0  0  0  0  0  0  0  0  0  0  0  0
    7.6014  -14.5191    9.5067 F   0  0  0  0  0  0  0  0  0  0  0  0
    4.8857  -15.5972    8.1822 C   0  0  0  0  0  0  0  0  0  0  0  0
    5.1908  -16.8006    8.7878 C   0  0  0  0  0  0  0  0  0  0  0  0
    5.0923  -17.8043    7.8209 C   0  0  0  0  0  0  0  0  0  0  0  0
    4.6883  -17.2284    6.6258 C   0  0  0  0  0  0  0  0  0  0  0  0
    4.5642  -15.8737    6.8636 N   0  0  0  0  0  0  0  0  0  0  0  0
    4.4571  -17.8676    5.3575 C   0  0  0  0  0  0  0  0  0  0  0  0
    4.7120  -19.3491    5.2817 C   0  0  0  0  0  0  0  0  0  0  0  0
    5.8507  -19.8301    4.6069 C   0  0  0  0  0  0  0  0  0  0  0  0
    6.1300  -21.1952    4.5773 C   0  0  0  0  0  0  0  0  0  0  0  0
    5.3060  -22.0807    5.2687 C   0  0  0  0  0  0  0  0  0  0  0  0
    4.1857  -21.6067    5.9705 C   0  0  0  0  0  0  0  0  0  0  0  0
    3.2435  -22.8063    6.9182 S   0  0  0  0  0  0  0  0  0  0  0  0
    2.5865  -23.5710    5.8594 O   0  0  0  0  0  0  0  0  0  0  0  0
    4.2952  -23.5305    7.6323 O   0  0  0  0  0  0  0  0  0  0  0  0
    2.3521  -22.0343    7.7734 O   0  5  0  0  0  0  0  0  0  0  0  0
    3.8713  -20.2545    5.9585 C   0  0  0  0  0  0  0  0  0  0  0  0
    2.7879  -19.7740    6.5861 F   0  0  0  0  0  0  0  0  0  0  0  0
    4.0482  -17.2391    4.2273 C   0  0  0  0  0  0  0  0  0  0  0  0
    3.7417  -15.8974    4.0223 N   0  0  0  0  0  0  0  0  0  0  0  0
    3.4446  -15.7845    2.7490 C   0  0  0  0  0  0  0  0  0  0  0  0
    2.9888  -14.5657    1.9812 C   0  0  0  0  0  0  0  0  0  0  0  0
    2.6766  -14.6608    0.5246 C   0  0  0  0  0  0  0  0  0  0  0  0
    1.5917  -15.4466    0.0880 C   0  0  0  0  0  0  0  0  0  0  0  0
    1.3295  -15.6075   -1.2744 C   0  0  0  0  0  0  0  0  0  0  0  0
    2.1100  -14.9356   -2.2111 C   0  0  0  0  0  0  0  0  0  0  0  0
    3.1662  -14.1159   -1.7871 C   0  0  0  0  0  0  0  0  0  0  0  0
    4.0377  -13.1754   -3.0453 S   0  0  0  0  0  0  0  0  0  0  0  0
    4.8585  -14.2048   -3.6762 O   0  0  0  0  0  0  0  0  0  0  0  0
    2.9352  -12.6736   -3.8663 O   0  0  0  0  0  0  0  0  0  0  0  0
    4.7608  -12.1365   -2.3231 O   0  5  0  0  0  0  0  0  0  0  0  0
    3.4696  -14.0011   -0.4350 C   0  0  0  0  0  0  0  0  0  0  0  0
    4.5149  -13.2782   -0.0085 F   0  0  0  0  0  0  0  0  0  0  0  0
    2.8876  -13.3897    2.6345 C   0  0  0  0  0  0  0  0  0  0  0  0
    2.4808  -12.1104    2.0547 C   0  0  0  0  0  0  0  0  0  0  0  0
    2.6317  -11.1398    2.9754 C   0  0  0  0  0  0  0  0  0  0  0  0
    3.1158  -11.7390    4.2180 C   0  0  0  0  0  0  0  0  0  0  0  0
    3.1733  -13.0826    3.9445 N   0  0  0  0  0  0  0  0  0  0  0  0
    3.5598  -17.0425    1.9958 C   0  0  0  0  0  0  0  0  0  0  0  0
    3.8722  -17.9048    2.9533 C   0  0  0  0  0  0  0  0  0  0  0  0
    4.5746  -11.8449    8.6452 C   0  0  0  0  0  0  0  0  0  0  0  0
    4.1652  -10.9505    7.7620 C   0  0  0  0  0  0  0  0  0  0  0  0
    4.5683   -8.8487    5.2337 C   0  0  0  0  0  0  0  0  0  0  0  0
    4.6315   -7.5206    5.6570 C   0  0  0  0  0  0  0  0  0  0  0  0
   -0.7641   -2.2266   -0.6257 C   0  0  0  0  0  0  0  0  0  0  0  0
   -2.0946   -1.8236   -0.8103 C   0  0  0  0  0  0  0  0  0  0  0  0
   -3.1149   -2.7682   -0.9781 C   0  0  0  0  0  0  0  0  0  0  0  0
   -2.8153   -4.1130   -1.0140 C   0  0  0  0  0  0  0  0  0  0  0  0
   -1.5038   -4.4873   -0.8907 C   0  0  0  0  0  0  0  0  0  0  0  0
   -0.4925   -3.5703   -0.6698 C   0  0  0  0  0  0  0  0  0  0  0  0
    0.7308    1.3401    1.7757 H   0  0  0  0  0  0  0  0  0  0  0  0
    1.6183    1.2264    0.2749 H   0  0  0  0  0  0  0  0  0  0  0  0
    1.9060    0.0669    1.5500 H   0  0  0  0  0  0  0  0  0  0  0  0
   -0.6467    0.4119    0.0453 H   0  0  0  0  0  0  0  0  0  0  0  0
   -0.2264   -0.8115    1.3379 H   0  0  0  0  0  0  0  0  0  0  0  0
    1.3890   -1.6677   -0.2192 H   0  0  0  0  0  0  0  0  0  0  0  0
    0.7766   -0.0141   -2.2154 H   0  0  0  0  0  0  0  0  0  0  0  0
    5.5860   -2.6848   -3.5479 H   0  0  0  0  0  0  0  0  0  0  0  0
    5.4430   -4.2153   -4.3787 H   0  0  0  0  0  0  0  0  0  0  0  0
    5.8655   -4.1775   -2.6837 H   0  0  0  0  0  0  0  0  0  0  0  0
    3.5428   -5.8575   -2.8780 H   0  0  0  0  0  0  0  0  0  0  0  0
    0.8131   -8.2712   -1.0725 H   0  0  0  0  0  0  0  0  0  0  0  0
   -0.6267   -7.2647   -1.2948 H   0  0  0  0  0  0  0  0  0  0  0  0
    1.0511   -7.1407    1.1960 H   0  0  0  0  0  0  0  0  0  0  0  0
   -0.3400   -8.2322    1.0014 H   0  0  0  0  0  0  0  0  0  0  0  0
   -0.4766   -5.4241    2.9553 H   0  0  0  0  0  0  0  0  0  0  0  0
   -0.8886   -4.3285    1.5726 H   0  0  0  0  0  0  0  0  0  0  0  0
    1.1544   -3.6702    1.7186 H   0  0  0  0  0  0  0  0  0  0  0  0
    1.4776   -5.2547    0.8999 H   0  0  0  0  0  0  0  0  0  0  0  0
    2.3434   -6.3849    4.3170 H   0  0  0  0  0  0  0  0  0  0  0  0
    0.7677   -6.4718    3.4512 H   0  0  0  0  0  0  0  0  0  0  0  0
    1.1710   -5.4426    5.9090 H   0  0  0  0  0  0  0  0  0  0  0  0
   -0.1967   -5.1243    4.7138 H   0  0  0  0  0  0  0  0  0  0  0  0
    2.1005   -1.9607    4.9609 H   0  0  0  0  0  0  0  0  0  0  0  0
    2.3893   -3.3128    3.7546 H   0  0  0  0  0  0  0  0  0  0  0  0
    3.4760   -3.0971    6.4826 H   0  0  0  0  0  0  0  0  0  0  0  0
    4.3196   -2.9851    4.9038 H   0  0  0  0  0  0  0  0  0  0  0  0
    1.5576   -7.2903    7.0037 H   0  0  0  0  0  0  0  0  0  0  0  0
    1.3757   -9.5234    6.0648 H   0  0  0  0  0  0  0  0  0  0  0  0
    3.4399  -13.7331   10.9544 H   0  0  0  0  0  0  0  0  0  0  0  0
    4.1679  -13.5285   13.2603 H   0  0  0  0  0  0  0  0  0  0  0  0
    6.4962  -13.9135   13.8230 H   0  0  0  0  0  0  0  0  0  0  0  0
    5.4462  -16.9345    9.7787 H   0  0  0  0  0  0  0  0  0  0  0  0
    5.2875  -18.8065    7.9709 H   0  0  0  0  0  0  0  0  0  0  0  0
    4.2885  -15.2047    6.1960 H   0  0  0  0  0  0  0  0  0  0  0  0
    6.4826  -19.1673    4.1311 H   0  0  0  0  0  0  0  0  0  0  0  0
    6.9419  -21.5478    4.0467 H   0  0  0  0  0  0  0  0  0  0  0  0
    5.5200  -23.0903    5.2651 H   0  0  0  0  0  0  0  0  0  0  0  0
    0.9840  -15.9084    0.7826 H   0  0  0  0  0  0  0  0  0  0  0  0
    0.5606  -16.2217   -1.5853 H   0  0  0  0  0  0  0  0  0  0  0  0
    1.9113  -15.0407   -3.2183 H   0  0  0  0  0  0  0  0  0  0  0  0
    2.1333  -11.9733    1.0927 H   0  0  0  0  0  0  0  0  0  0  0  0
    2.4375  -10.1370    2.8281 H   0  0  0  0  0  0  0  0  0  0  0  0
    3.3976  -13.7617    4.6211 H   0  0  0  0  0  0  0  0  0  0  0  0
    3.4311  -17.2102    0.9857 H   0  0  0  0  0  0  0  0  0  0  0  0
    3.9767  -18.9213    2.8090 H   0  0  0  0  0  0  0  0  0  0  0  0
    4.8722  -11.6242    9.6084 H   0  0  0  0  0  0  0  0  0  0  0  0
    4.0578   -9.9302    7.8733 H   0  0  0  0  0  0  0  0  0  0  0  0
    5.3873   -9.2843    4.7815 H   0  0  0  0  0  0  0  0  0  0  0  0
    5.4837   -6.9618    5.4942 H   0  0  0  0  0  0  0  0  0  0  0  0
   -2.3249   -0.8177   -0.8227 H   0  0  0  0  0  0  0  0  0  0  0  0
   -4.0939   -2.4564   -1.0751 H   0  0  0  0  0  0  0  0  0  0  0  0
   -3.5592   -4.8188   -1.1306 H   0  0  0  0  0  0  0  0  0  0  0  0
   -1.2619   -5.4878   -0.9652 H   0  0  0  0  0  0  0  0  0  0  0  0
    0.4762   -3.9003   -0.5368 H   0  0  0  0  0  0  0  0  0  0  0  0
  1  2  1  0  0  0  0
  1 99  1  0  0  0  0
  1100  1  0  0  0  0
  1101  1  0  0  0  0
  2102  1  0  0  0  0
  2103  1  0  0  0  0
  3 93  1  0  0  0  0
  3  4  1  0  0  0  0
  3  2  1  0  0  0  0
  3104  1  1  0  0  0
  4  5  1  0  0  0  0
  4105  1  0  0  0  0
  5  6  2  0  0  0  0
  5  7  1  0  0  0  0
  7  8  2  0  0  0  0
  7 12  1  0  0  0  0
  8  9  1  0  0  0  0
  9 10  1  0  0  0  0
  9 11  1  0  0  0  0
 10106  1  0  0  0  0
 10107  1  0  0  0  0
 10108  1  0  0  0  0
 11 12  2  0  0  0  0
 11109  1  0  0  0  0
 12 13  1  0  0  0  0
 13 14  2  0  0  0  0
 13 15  1  0  0  0  0
 15 16  1  0  0  0  0
 16 17  1  0  0  0  0
 16110  1  0  0  0  0
 16111  1  0  0  0  0
 17 18  1  0  0  0  0
 17112  1  0  0  0  0
 17113  1  0  0  0  0
 18 19  1  0  0  0  0
 19 20  1  0  0  0  0
 19114  1  0  0  0  0
 19115  1  0  0  0  0
 20 21  1  0  0  0  0
 20116  1  0  0  0  0
 20117  1  0  0  0  0
 21 22  1  0  0  0  0
 22 23  1  0  0  0  0
 22118  1  0  0  0  0
 22119  1  0  0  0  0
 23 24  1  0  0  0  0
 23120  1  0  0  0  0
 23121  1  0  0  0  0
 24 25  1  0  0  0  0
 25 26  1  0  0  0  0
 25122  1  0  0  0  0
 25123  1  0  0  0  0
 26 27  1  0  0  0  0
 26124  1  0  0  0  0
 26125  1  0  0  0  0
 27 28  1  0  0  0  0
 28 29  2  0  0  0  0
 28 30  1  0  0  0  0
 30 31  1  0  0  0  0
 30 92  2  0  0  0  0
 31 32  2  0  0  0  0
 31126  1  0  0  0  0
 32 33  1  0  0  0  0
 32127  1  0  0  0  0
 33 34  1  0  0  0  0
 33 91  2  0  0  0  0
 34 35  1  0  0  0  0
 34 85  2  0  0  0  0
 35 36  2  0  0  0  0
 35 90  1  0  0  0  0
 36 37  1  0  0  0  0
 37 38  2  0  0  0  0
 37 89  1  0  0  0  0
 38 39  1  0  0  0  0
 38 50  1  0  0  0  0
 39 40  1  0  0  0  0
 39 48  2  0  0  0  0
 40 41  2  0  0  0  0
 40128  1  0  0  0  0
 41 42  1  0  0  0  0
 41129  1  0  0  0  0
 42 43  2  0  0  0  0
 42130  1  0  0  0  0
 43 44  1  0  0  0  0
 43 48  1  0  0  0  0
 44 45  2  0  0  0  0
 44 46  2  0  0  0  0
 44 47  1  0  0  0  0
 48 49  1  0  0  0  0
 50 51  2  0  0  0  0
 50 54  1  0  0  0  0
 51 52  1  0  0  0  0
 51131  1  0  0  0  0
 52 53  2  0  0  0  0
 52132  1  0  0  0  0
 53 54  1  0  0  0  0
 53 55  1  0  0  0  0
 54133  1  0  0  0  0
 55 56  1  0  0  0  0
 55 67  2  0  0  0  0
 56 57  1  0  0  0  0
 56 65  2  0  0  0  0
 57 58  2  0  0  0  0
 57134  1  0  0  0  0
 58 59  1  0  0  0  0
 58135  1  0  0  0  0
 59 60  2  0  0  0  0
 59136  1  0  0  0  0
 60 61  1  0  0  0  0
 60 65  1  0  0  0  0
 61 62  2  0  0  0  0
 61 63  2  0  0  0  0
 61 64  1  0  0  0  0
 65 66  1  0  0  0  0
 67 68  1  0  0  0  0
 67 88  1  0  0  0  0
 68 69  2  0  0  0  0
 69 70  1  0  0  0  0
 69 87  1  0  0  0  0
 70 71  1  0  0  0  0
 70 82  2  0  0  0  0
 71 72  1  0  0  0  0
 71 80  2  0  0  0  0
 72 73  2  0  0  0  0
 72137  1  0  0  0  0
 73 74  1  0  0  0  0
 73138  1  0  0  0  0
 74 75  2  0  0  0  0
 74139  1  0  0  0  0
 75 76  1  0  0  0  0
 75 80  1  0  0  0  0
 76 77  2  0  0  0  0
 76 78  2  0  0  0  0
 76 79  1  0  0  0  0
 80 81  1  0  0  0  0
 82 83  1  0  0  0  0
 82 86  1  0  0  0  0
 83 84  2  0  0  0  0
 83140  1  0  0  0  0
 84 85  1  0  0  0  0
 84141  1  0  0  0  0
 85 86  1  0  0  0  0
 86142  1  0  0  0  0
 87 88  2  0  0  0  0
 87143  1  0  0  0  0
 88144  1  0  0  0  0
 89 90  2  0  0  0  0
 89145  1  0  0  0  0
 90146  1  0  0  0  0
 91 92  1  0  0  0  0
 91147  1  0  0  0  0
 92148  1  0  0  0  0
 93 94  1  0  0  0  0
 93 98  2  0  0  0  0
 94 95  2  0  0  0  0
 94149  1  0  0  0  0
 95 96  1  0  0  0  0
 95150  1  0  0  0  0
 96 97  2  0  0  0  0
 96151  1  0  0  0  0
 97 98  1  0  0  0  0
 97152  1  0  0  0  0
 98153  1  0  0  0  0
M  CHG  3  47  -1  64  -1  79  -1
M  END
$$$$
