6_6_564
 OpenBabel04152301373D

150160  0  0  0  0  0  0  0  0999 V2000
   -2.0126    0.2250    0.0426 C   0  0  0  0  0  0  0  0  0  0  0  0
   -0.6327    0.0062    0.4048 N   0  0  0  0  0  0  0  0  0  0  0  0
    0.1229   -1.0854    0.1058 C   0  0  0  0  0  0  0  0  0  0  0  0
    1.3590   -0.8941    0.6973 C   0  0  0  0  0  0  0  0  0  0  0  0
    2.5246   -1.7692    0.7453 C   0  0  0  0  0  0  0  0  0  0  0  0
    3.6328   -1.3413    1.0599 O   0  0  0  0  0  0  0  0  0  0  0  0
    2.4485   -3.1108    0.4988 N   0  0  0  0  0  0  0  0  0  0  0  0
    1.3526   -4.0351    0.2664 C   0  0  0  0  0  0  0  0  0  0  0  0
    1.3534   -4.5881   -1.1652 C   0  0  0  0  0  0  0  0  0  0  0  0
    2.3969   -5.6689   -1.3363 C   0  0  0  0  0  0  0  0  0  0  0  0
    2.0417   -7.0209   -1.2176 C   0  0  0  0  0  0  0  0  0  0  0  0
    3.0202   -8.0158   -1.2583 C   0  0  0  0  0  0  0  0  0  0  0  0
    4.3612   -7.6690   -1.4084 C   0  0  0  0  0  0  0  0  0  0  0  0
    4.7237   -6.3311   -1.5445 C   0  0  0  0  0  0  0  0  0  0  0  0
    3.7459   -5.3361   -1.5242 C   0  0  0  0  0  0  0  0  0  0  0  0
    1.2776    0.4501    1.2188 C   0  0  0  0  0  0  0  0  0  0  0  0
    2.3619    1.3041    1.7432 C   0  0  0  0  0  0  0  0  0  0  0  0
    2.2291    2.1201    2.6510 O   0  0  0  0  0  0  0  0  0  0  0  0
    3.4626    1.2275    0.9525 O   0  0  0  0  0  0  0  0  0  0  0  0
    4.4880    2.2123    1.0985 C   0  0  0  0  0  0  0  0  0  0  0  0
    4.0751    3.5540    0.4925 C   0  0  0  0  0  0  0  0  0  0  0  0
    3.8113    3.4720   -0.9079 O   0  0  0  0  0  0  0  0  0  0  0  0
    2.4847    3.0738   -1.2766 C   0  0  0  0  0  0  0  0  0  0  0  0
    2.4171    1.6552   -1.8724 C   0  0  0  0  0  0  0  0  0  0  0  0
    3.0503    1.4387   -3.1281 O   0  0  0  0  0  0  0  0  0  0  0  0
    4.4149    1.8481   -3.1855 C   0  0  0  0  0  0  0  0  0  0  0  0
    4.5476    3.2489   -3.8057 C   0  0  0  0  0  0  0  0  0  0  0  0
    3.2977    3.7759   -4.2575 O   0  0  0  0  0  0  0  0  0  0  0  0
    2.9909    3.5724   -5.6345 C   0  0  0  0  0  0  0  0  0  0  0  0
    2.8303    2.1195   -6.1145 C   0  0  0  0  0  0  0  0  0  0  0  0
    4.0267    1.3212   -6.0886 O   0  0  0  0  0  0  0  0  0  0  0  0
    5.0928    1.7635   -6.7884 C   0  0  0  0  0  0  0  0  0  0  0  0
    5.1461    2.7365   -7.5185 O   0  0  0  0  0  0  0  0  0  0  0  0
    6.2642    0.9636   -6.3786 C   0  0  0  0  0  0  0  0  0  0  0  0
    7.3971    1.6282   -5.8922 C   0  0  0  0  0  0  0  0  0  0  0  0
    8.5341    0.8983   -5.5427 C   0  0  0  0  0  0  0  0  0  0  0  0
    8.5486   -0.4932   -5.7093 C   0  0  0  0  0  0  0  0  0  0  0  0
    9.8272   -1.2363   -5.6219 C   0  0  0  0  0  0  0  0  0  0  0  0
   10.6086   -1.4564   -6.8886 C   0  0  0  0  0  0  0  0  0  0  0  0
   11.7371   -2.0905   -7.0658 N   0  0  0  0  0  0  0  0  0  0  0  0
   12.0017   -2.0143   -8.4274 C   0  0  0  0  0  0  0  0  0  0  0  0
   13.0662   -2.4929   -9.1113 C   0  0  0  0  0  0  0  0  0  0  0  0
   13.1221   -2.2195  -10.5881 C   0  0  0  0  0  0  0  0  0  0  0  0
   13.4751   -0.9308  -11.0364 C   0  0  0  0  0  0  0  0  0  0  0  0
   13.5669   -0.6557  -12.3995 C   0  0  0  0  0  0  0  0  0  0  0  0
   13.3436   -1.6752  -13.3214 C   0  0  0  0  0  0  0  0  0  0  0  0
   13.0073   -2.9671  -12.8833 C   0  0  0  0  0  0  0  0  0  0  0  0
   12.8011   -4.2280  -14.1456 S   0  0  0  0  0  0  0  0  0  0  0  0
   11.5198   -3.8461  -14.7375 O   0  0  0  0  0  0  0  0  0  0  0  0
   13.9625   -3.9976  -15.0054 O   0  0  0  0  0  0  0  0  0  0  0  0
   12.8110   -5.5034  -13.4431 O   0  5  0  0  0  0  0  0  0  0  0  0
   12.8799   -3.2400  -11.5265 C   0  0  0  0  0  0  0  0  0  0  0  0
   12.5171   -4.4497  -11.0769 F   0  0  0  0  0  0  0  0  0  0  0  0
   14.1572   -3.2065   -8.5099 C   0  0  0  0  0  0  0  0  0  0  0  0
   15.3055   -3.6881   -9.1123 C   0  0  0  0  0  0  0  0  0  0  0  0
   16.0680   -4.3391   -8.1369 C   0  0  0  0  0  0  0  0  0  0  0  0
   15.3986   -4.2509   -6.9266 C   0  0  0  0  0  0  0  0  0  0  0  0
   14.2298   -3.5526   -7.1706 N   0  0  0  0  0  0  0  0  0  0  0  0
   15.7857   -4.7866   -5.6475 C   0  0  0  0  0  0  0  0  0  0  0  0
   17.0743   -5.5633   -5.5864 C   0  0  0  0  0  0  0  0  0  0  0  0
   17.0355   -6.9699   -5.5283 C   0  0  0  0  0  0  0  0  0  0  0  0
   18.2158   -7.7123   -5.5468 C   0  0  0  0  0  0  0  0  0  0  0  0
   19.4394   -7.0576   -5.6691 C   0  0  0  0  0  0  0  0  0  0  0  0
   19.4879   -5.6565   -5.7470 C   0  0  0  0  0  0  0  0  0  0  0  0
   21.0963   -4.8959   -5.9998 S   0  0  0  0  0  0  0  0  0  0  0  0
   21.6581   -4.9297   -4.6510 O   0  0  0  0  0  0  0  0  0  0  0  0
   21.7325   -5.8114   -6.9482 O   0  0  0  0  0  0  0  0  0  0  0  0
   20.8264   -3.5689   -6.5373 O   0  5  0  0  0  0  0  0  0  0  0  0
   18.3177   -4.9081   -5.6858 C   0  0  0  0  0  0  0  0  0  0  0  0
   18.3352   -3.5675   -5.7203 F   0  0  0  0  0  0  0  0  0  0  0  0
   15.0573   -4.6734   -4.5093 C   0  0  0  0  0  0  0  0  0  0  0  0
   13.8500   -4.0137   -4.3015 N   0  0  0  0  0  0  0  0  0  0  0  0
   13.5349   -4.2238   -3.0461 C   0  0  0  0  0  0  0  0  0  0  0  0
   12.3634   -3.6929   -2.2576 C   0  0  0  0  0  0  0  0  0  0  0  0
   12.2234   -4.0056   -0.8074 C   0  0  0  0  0  0  0  0  0  0  0  0
   13.1440   -3.4638    0.1104 C   0  0  0  0  0  0  0  0  0  0  0  0
   13.0532   -3.7636    1.4704 C   0  0  0  0  0  0  0  0  0  0  0  0
   12.0127   -4.5662    1.9315 C   0  0  0  0  0  0  0  0  0  0  0  0
   11.0731   -5.0878    1.0295 C   0  0  0  0  0  0  0  0  0  0  0  0
    9.6927   -6.0173    1.7071 S   0  0  0  0  0  0  0  0  0  0  0  0
   10.2929   -7.3303    1.9253 O   0  0  0  0  0  0  0  0  0  0  0  0
    9.3856   -5.2703    2.9275 O   0  0  0  0  0  0  0  0  0  0  0  0
    8.6502   -5.9519    0.6904 O   0  5  0  0  0  0  0  0  0  0  0  0
   11.1877   -4.8328   -0.3328 C   0  0  0  0  0  0  0  0  0  0  0  0
   10.3365   -5.3633   -1.2226 F   0  0  0  0  0  0  0  0  0  0  0  0
   11.4630   -2.8959   -2.8679 C   0  0  0  0  0  0  0  0  0  0  0  0
   10.2971   -2.2787   -2.2367 C   0  0  0  0  0  0  0  0  0  0  0  0
    9.5952   -1.6041   -3.1654 C   0  0  0  0  0  0  0  0  0  0  0  0
   10.2706   -1.7351   -4.4546 C   0  0  0  0  0  0  0  0  0  0  0  0
   11.3887   -2.4816   -4.1766 N   0  0  0  0  0  0  0  0  0  0  0  0
   14.4941   -5.0748   -2.3242 C   0  0  0  0  0  0  0  0  0  0  0  0
   15.4273   -5.2756   -3.2456 C   0  0  0  0  0  0  0  0  0  0  0  0
   10.9117   -1.2833   -9.0346 C   0  0  0  0  0  0  0  0  0  0  0  0
   10.0364   -0.8880   -8.1221 C   0  0  0  0  0  0  0  0  0  0  0  0
    7.3890   -1.1568   -6.1447 C   0  0  0  0  0  0  0  0  0  0  0  0
    6.2450   -0.4298   -6.4782 C   0  0  0  0  0  0  0  0  0  0  0  0
    0.0342    0.9567    1.0661 N   0  0  0  0  0  0  0  0  0  0  0  0
   -2.3852   -0.6328   -0.4773 H   0  0  0  0  0  0  0  0  0  0  0  0
   -2.0831    1.0845   -0.5908 H   0  0  0  0  0  0  0  0  0  0  0  0
   -2.5925    0.3855    0.9274 H   0  0  0  0  0  0  0  0  0  0  0  0
   -0.1702   -1.9005   -0.4552 H   0  0  0  0  0  0  0  0  0  0  0  0
    3.3307   -3.5471    0.4730 H   0  0  0  0  0  0  0  0  0  0  0  0
    0.4285   -3.5237    0.4376 H   0  0  0  0  0  0  0  0  0  0  0  0
    1.4714   -4.8603    0.9371 H   0  0  0  0  0  0  0  0  0  0  0  0
    1.5629   -3.7904   -1.8468 H   0  0  0  0  0  0  0  0  0  0  0  0
    0.3916   -5.0129   -1.3636 H   0  0  0  0  0  0  0  0  0  0  0  0
    1.0502   -7.2818   -1.0994 H   0  0  0  0  0  0  0  0  0  0  0  0
    2.7501   -9.0085   -1.1772 H   0  0  0  0  0  0  0  0  0  0  0  0
    5.0860   -8.4035   -1.4187 H   0  0  0  0  0  0  0  0  0  0  0  0
    5.7168   -6.0755   -1.6605 H   0  0  0  0  0  0  0  0  0  0  0  0
    4.0175   -4.3482   -1.6484 H   0  0  0  0  0  0  0  0  0  0  0  0
    5.3728    1.8671    0.6058 H   0  0  0  0  0  0  0  0  0  0  0  0
    4.6630    2.3586    2.1439 H   0  0  0  0  0  0  0  0  0  0  0  0
    4.8653    4.2579    0.6507 H   0  0  0  0  0  0  0  0  0  0  0  0
    3.1690    3.8588    0.9732 H   0  0  0  0  0  0  0  0  0  0  0  0
    2.1123    3.7653   -2.0033 H   0  0  0  0  0  0  0  0  0  0  0  0
    1.8954    3.0705   -0.3835 H   0  0  0  0  0  0  0  0  0  0  0  0
    1.3832    1.4050   -1.9876 H   0  0  0  0  0  0  0  0  0  0  0  0
    2.9622    1.0442   -1.1836 H   0  0  0  0  0  0  0  0  0  0  0  0
    4.9646    1.1491   -3.7805 H   0  0  0  0  0  0  0  0  0  0  0  0
    4.8021    1.8800   -2.1885 H   0  0  0  0  0  0  0  0  0  0  0  0
    5.2158    3.1916   -4.6394 H   0  0  0  0  0  0  0  0  0  0  0  0
    4.9172    3.9042   -3.0448 H   0  0  0  0  0  0  0  0  0  0  0  0
    3.7782    4.0152   -6.2080 H   0  0  0  0  0  0  0  0  0  0  0  0
    2.0258    4.0144   -5.7691 H   0  0  0  0  0  0  0  0  0  0  0  0
    2.4721    2.1434   -7.1225 H   0  0  0  0  0  0  0  0  0  0  0  0
    2.1542    1.6566   -5.4263 H   0  0  0  0  0  0  0  0  0  0  0  0
    7.3911    2.6554   -5.7925 H   0  0  0  0  0  0  0  0  0  0  0  0
    9.3625    1.3822   -5.1624 H   0  0  0  0  0  0  0  0  0  0  0  0
   13.6672   -0.1848  -10.3497 H   0  0  0  0  0  0  0  0  0  0  0  0
   13.7986    0.2964  -12.7233 H   0  0  0  0  0  0  0  0  0  0  0  0
   13.4256   -1.4808  -14.3316 H   0  0  0  0  0  0  0  0  0  0  0  0
   15.5561   -3.5850  -10.1081 H   0  0  0  0  0  0  0  0  0  0  0  0
   16.9752   -4.8059   -8.2922 H   0  0  0  0  0  0  0  0  0  0  0  0
   13.5501   -3.3339   -6.4928 H   0  0  0  0  0  0  0  0  0  0  0  0
   16.1264   -7.4550   -5.4716 H   0  0  0  0  0  0  0  0  0  0  0  0
   18.1830   -8.7409   -5.4703 H   0  0  0  0  0  0  0  0  0  0  0  0
   20.3138   -7.6047   -5.7026 H   0  0  0  0  0  0  0  0  0  0  0  0
   13.8932   -2.8389   -0.2261 H   0  0  0  0  0  0  0  0  0  0  0  0
   13.7537   -3.3924    2.1311 H   0  0  0  0  0  0  0  0  0  0  0  0
   11.9326   -4.7777    2.9384 H   0  0  0  0  0  0  0  0  0  0  0  0
   10.0515   -2.3494   -1.2368 H   0  0  0  0  0  0  0  0  0  0  0  0
    8.7227   -1.0800   -2.9951 H   0  0  0  0  0  0  0  0  0  0  0  0
   12.0725   -2.6996   -4.8505 H   0  0  0  0  0  0  0  0  0  0  0  0
   14.4519   -5.4243   -1.3541 H   0  0  0  0  0  0  0  0  0  0  0  0
   16.3044   -5.7944   -3.0826 H   0  0  0  0  0  0  0  0  0  0  0  0
   10.8268   -1.0944  -10.0456 H   0  0  0  0  0  0  0  0  0  0  0  0
    9.1780   -0.3282   -8.2434 H   0  0  0  0  0  0  0  0  0  0  0  0
    7.3831   -2.1862   -6.2182 H   0  0  0  0  0  0  0  0  0  0  0  0
    5.3926   -0.9173   -6.7955 H   0  0  0  0  0  0  0  0  0  0  0  0
  1  2  1  0  0  0  0
  1 98  1  0  0  0  0
  1 99  1  0  0  0  0
  1100  1  0  0  0  0
  2  3  1  0  0  0  0
  2 97  1  0  0  0  0
  3  4  2  0  0  0  0
  3101  1  0  0  0  0
  4  5  1  0  0  0  0
  4 16  1  0  0  0  0
  5  6  2  0  0  0  0
  5  7  1  0  0  0  0
  7  8  1  0  0  0  0
  7102  1  0  0  0  0
  8  9  1  0  0  0  0
  8103  1  0  0  0  0
  8104  1  0  0  0  0
  9 10  1  0  0  0  0
  9105  1  0  0  0  0
  9106  1  0  0  0  0
 10 11  1  0  0  0  0
 10 15  2  0  0  0  0
 11 12  2  0  0  0  0
 11107  1  0  0  0  0
 12 13  1  0  0  0  0
 12108  1  0  0  0  0
 13 14  2  0  0  0  0
 13109  1  0  0  0  0
 14 15  1  0  0  0  0
 14110  1  0  0  0  0
 15111  1  0  0  0  0
 16 17  1  0  0  0  0
 16 97  2  0  0  0  0
 17 18  2  0  0  0  0
 17 19  1  0  0  0  0
 19 20  1  0  0  0  0
 20 21  1  0  0  0  0
 20112  1  0  0  0  0
 20113  1  0  0  0  0
 21 22  1  0  0  0  0
 21114  1  0  0  0  0
 21115  1  0  0  0  0
 22 23  1  0  0  0  0
 23 24  1  0  0  0  0
 23116  1  0  0  0  0
 23117  1  0  0  0  0
 24 25  1  0  0  0  0
 24118  1  0  0  0  0
 24119  1  0  0  0  0
 25 26  1  0  0  0  0
 26 27  1  0  0  0  0
 26120  1  0  0  0  0
 26121  1  0  0  0  0
 27 28  1  0  0  0  0
 27122  1  0  0  0  0
 27123  1  0  0  0  0
 28 29  1  0  0  0  0
 29 30  1  0  0  0  0
 29124  1  0  0  0  0
 29125  1  0  0  0  0
 30 31  1  0  0  0  0
 30126  1  0  0  0  0
 30127  1  0  0  0  0
 31 32  1  0  0  0  0
 32 33  2  0  0  0  0
 32 34  1  0  0  0  0
 34 35  1  0  0  0  0
 34 96  2  0  0  0  0
 35 36  2  0  0  0  0
 35128  1  0  0  0  0
 36 37  1  0  0  0  0
 36129  1  0  0  0  0
 37 38  1  0  0  0  0
 37 95  2  0  0  0  0
 38 39  1  0  0  0  0
 38 89  2  0  0  0  0
 39 40  2  0  0  0  0
 39 94  1  0  0  0  0
 40 41  1  0  0  0  0
 41 42  2  0  0  0  0
 41 93  1  0  0  0  0
 42 43  1  0  0  0  0
 42 54  1  0  0  0  0
 43 44  1  0  0  0  0
 43 52  2  0  0  0  0
 44 45  2  0  0  0  0
 44130  1  0  0  0  0
 45 46  1  0  0  0  0
 45131  1  0  0  0  0
 46 47  2  0  0  0  0
 46132  1  0  0  0  0
 47 48  1  0  0  0  0
 47 52  1  0  0  0  0
 48 49  2  0  0  0  0
 48 50  2  0  0  0  0
 48 51  1  0  0  0  0
 52 53  1  0  0  0  0
 54 55  2  0  0  0  0
 54 58  1  0  0  0  0
 55 56  1  0  0  0  0
 55133  1  0  0  0  0
 56 57  2  0  0  0  0
 56134  1  0  0  0  0
 57 58  1  0  0  0  0
 57 59  1  0  0  0  0
 58135  1  0  0  0  0
 59 60  1  0  0  0  0
 59 71  2  0  0  0  0
 60 61  1  0  0  0  0
 60 69  2  0  0  0  0
 61 62  2  0  0  0  0
 61136  1  0  0  0  0
 62 63  1  0  0  0  0
 62137  1  0  0  0  0
 63 64  2  0  0  0  0
 63138  1  0  0  0  0
 64 65  1  0  0  0  0
 64 69  1  0  0  0  0
 65 66  2  0  0  0  0
 65 67  2  0  0  0  0
 65 68  1  0  0  0  0
 69 70  1  0  0  0  0
 71 72  1  0  0  0  0
 71 92  1  0  0  0  0
 72 73  2  0  0  0  0
 73 74  1  0  0  0  0
 73 91  1  0  0  0  0
 74 75  1  0  0  0  0
 74 86  2  0  0  0  0
 75 76  1  0  0  0  0
 75 84  2  0  0  0  0
 76 77  2  0  0  0  0
 76139  1  0  0  0  0
 77 78  1  0  0  0  0
 77140  1  0  0  0  0
 78 79  2  0  0  0  0
 78141  1  0  0  0  0
 79 80  1  0  0  0  0
 79 84  1  0  0  0  0
 80 81  2  0  0  0  0
 80 82  2  0  0  0  0
 80 83  1  0  0  0  0
 84 85  1  0  0  0  0
 86 87  1  0  0  0  0
 86 90  1  0  0  0  0
 87 88  2  0  0  0  0
 87142  1  0  0  0  0
 88 89  1  0  0  0  0
 88143  1  0  0  0  0
 89 90  1  0  0  0  0
 90144  1  0  0  0  0
 91 92  2  0  0  0  0
 91145  1  0  0  0  0
 92146  1  0  0  0  0
 93 94  2  0  0  0  0
 93147  1  0  0  0  0
 94148  1  0  0  0  0
 95 96  1  0  0  0  0
 95149  1  0  0  0  0
 96150  1  0  0  0  0
M  CHG  3  51  -1  68  -1  83  -1
M  END
$$$$
