6_6_3319
 OpenBabel04152301373D

148158  0  0  1  0  0  0  0  0999 V2000
    0.4042   -0.0046   -0.0209 C   0  0  0  0  0  0  0  0  0  0  0  0
   -0.4640   -1.1343   -0.1272 O   0  0  0  0  0  0  0  0  0  0  0  0
    0.1014   -2.2840   -0.6083 C   0  0  0  0  0  0  0  0  0  0  0  0
   -0.6569   -3.4445   -0.5113 C   0  0  0  0  0  0  0  0  0  0  0  0
   -0.1397   -4.6685   -0.9480 C   0  0  0  0  0  0  0  0  0  0  0  0
    1.1752   -4.7638   -1.4224 C   0  0  0  0  0  0  0  0  0  0  0  0
    1.9794   -3.6117   -1.4274 C   0  0  0  0  0  0  0  0  0  0  0  0
    1.3835   -2.3710   -1.1302 C   0  0  0  0  0  0  0  0  0  0  0  0
    3.5101   -3.6824   -1.5490 C   0  0  1  0  0  0  0  0  0  0  0  0
    3.9850   -2.9999   -2.7850 N   0  0  0  0  0  0  0  0  0  0  0  0
    4.0958   -1.6682   -3.0365 C   0  0  0  0  0  0  0  0  0  0  0  0
    4.3902   -1.2389   -4.1454 O   0  0  0  0  0  0  0  0  0  0  0  0
    4.0908   -2.9696   -0.2490 C   0  0  0  0  0  0  0  0  0  0  0  0
    3.9494   -1.7697   -0.0074 O   0  0  0  0  0  0  0  0  0  0  0  0
    4.7747   -3.7893    0.5761 O   0  0  0  0  0  0  0  0  0  0  0  0
    5.2476   -3.1674    1.7679 C   0  0  0  0  0  0  0  0  0  0  0  0
    6.5831   -2.3932    1.7456 C   0  0  0  0  0  0  0  0  0  0  0  0
    7.2632   -1.8323    0.6357 O   0  0  0  0  0  0  0  0  0  0  0  0
    7.0320   -2.1658   -0.7158 C   0  0  0  0  0  0  0  0  0  0  0  0
    7.1310   -3.6198   -1.1878 C   0  0  0  0  0  0  0  0  0  0  0  0
    7.0975   -4.5865   -0.1631 O   0  0  0  0  0  0  0  0  0  0  0  0
    8.3193   -4.9169    0.4841 C   0  0  0  0  0  0  0  0  0  0  0  0
    9.5113   -3.9382    0.4168 C   0  0  0  0  0  0  0  0  0  0  0  0
    9.7249   -3.3395   -0.8526 O   0  0  0  0  0  0  0  0  0  0  0  0
   10.6427   -3.9305   -1.7588 C   0  0  0  0  0  0  0  0  0  0  0  0
   10.3922   -5.3730   -2.2305 C   0  0  0  0  0  0  0  0  0  0  0  0
   10.3146   -6.3819   -1.2127 O   0  0  0  0  0  0  0  0  0  0  0  0
   11.3529   -6.5088   -0.3617 C   0  0  0  0  0  0  0  0  0  0  0  0
   12.4115   -5.9012   -0.4016 O   0  0  0  0  0  0  0  0  0  0  0  0
   10.9106   -7.3522    0.7688 C   0  0  0  0  0  0  0  0  0  0  0  0
   10.9498   -6.8213    2.0658 C   0  0  0  0  0  0  0  0  0  0  0  0
   10.5735   -7.6050    3.1553 C   0  0  0  0  0  0  0  0  0  0  0  0
   10.2025   -8.9395    2.9562 C   0  0  0  0  0  0  0  0  0  0  0  0
   10.1392   -9.8580    4.1183 C   0  0  0  0  0  0  0  0  0  0  0  0
   11.3374  -10.7265    4.3978 C   0  0  0  0  0  0  0  0  0  0  0  0
   11.5029  -11.6371    5.3193 N   0  0  0  0  0  0  0  0  0  0  0  0
   12.7692  -12.1671    5.1028 C   0  0  0  0  0  0  0  0  0  0  0  0
   13.4040  -13.1444    5.7886 C   0  0  0  0  0  0  0  0  0  0  0  0
   14.7725  -13.5646    5.3277 C   0  0  0  0  0  0  0  0  0  0  0  0
   15.8864  -12.7371    5.5681 C   0  0  0  0  0  0  0  0  0  0  0  0
   17.1696  -13.1648    5.2284 C   0  0  0  0  0  0  0  0  0  0  0  0
   17.3504  -14.4369    4.6894 C   0  0  0  0  0  0  0  0  0  0  0  0
   16.2461  -15.2737    4.4594 C   0  0  0  0  0  0  0  0  0  0  0  0
   16.5901  -16.9257    3.8458 S   0  0  0  0  0  0  0  0  0  0  0  0
   17.1289  -16.6397    2.5165 O   0  0  0  0  0  0  0  0  0  0  0  0
   17.5750  -17.4101    4.8125 O   0  0  0  0  0  0  0  0  0  0  0  0
   15.3189  -17.6356    3.8574 O   0  5  0  0  0  0  0  0  0  0  0  0
   14.9617  -14.8355    4.7500 C   0  0  0  0  0  0  0  0  0  0  0  0
   13.8822  -15.5933    4.5097 F   0  0  0  0  0  0  0  0  0  0  0  0
   12.8517  -13.8150    6.9323 C   0  0  0  0  0  0  0  0  0  0  0  0
   13.4484  -14.7715    7.7342 C   0  0  0  0  0  0  0  0  0  0  0  0
   12.5100  -15.1928    8.6793 C   0  0  0  0  0  0  0  0  0  0  0  0
   11.3495  -14.4577    8.5002 C   0  0  0  0  0  0  0  0  0  0  0  0
   11.5718  -13.6205    7.4220 N   0  0  0  0  0  0  0  0  0  0  0  0
   10.1230  -14.5271    9.2490 C   0  0  0  0  0  0  0  0  0  0  0  0
   10.0647  -15.5016   10.3974 C   0  0  0  0  0  0  0  0  0  0  0  0
    9.2820  -16.6687   10.3011 C   0  0  0  0  0  0  0  0  0  0  0  0
    9.2563  -17.5920   11.3463 C   0  0  0  0  0  0  0  0  0  0  0  0
   10.0580  -17.3863   12.4670 C   0  0  0  0  0  0  0  0  0  0  0  0
   10.8690  -16.2439   12.5574 C   0  0  0  0  0  0  0  0  0  0  0  0
   11.9477  -16.1145   13.9877 S   0  0  0  0  0  0  0  0  0  0  0  0
   10.9898  -15.8466   15.0592 O   0  0  0  0  0  0  0  0  0  0  0  0
   12.5597  -17.4427   14.0341 O   0  0  0  0  0  0  0  0  0  0  0  0
   12.8758  -15.0301   13.6969 O   0  5  0  0  0  0  0  0  0  0  0  0
   10.8555  -15.2926   11.5457 C   0  0  0  0  0  0  0  0  0  0  0  0
   11.5841  -14.1694   11.6241 F   0  0  0  0  0  0  0  0  0  0  0  0
    9.0216  -13.7796    8.9918 C   0  0  0  0  0  0  0  0  0  0  0  0
    8.8346  -12.7897    8.0312 N   0  0  0  0  0  0  0  0  0  0  0  0
    7.5930  -12.3898    8.1630 C   0  0  0  0  0  0  0  0  0  0  0  0
    6.8636  -11.2860    7.4350 C   0  0  0  0  0  0  0  0  0  0  0  0
    5.4398  -10.9859    7.7660 C   0  0  0  0  0  0  0  0  0  0  0  0
    5.1043  -10.5032    9.0466 C   0  0  0  0  0  0  0  0  0  0  0  0
    3.7695  -10.3179    9.4108 C   0  0  0  0  0  0  0  0  0  0  0  0
    2.7628  -10.5484    8.4774 C   0  0  0  0  0  0  0  0  0  0  0  0
    3.0886  -10.9782    7.1822 C   0  0  0  0  0  0  0  0  0  0  0  0
    1.7432  -11.1272    6.0023 S   0  0  0  0  0  0  0  0  0  0  0  0
    1.0677  -12.3348    6.4687 O   0  0  0  0  0  0  0  0  0  0  0  0
    1.0068   -9.8824    6.2255 O   0  0  0  0  0  0  0  0  0  0  0  0
    2.3783  -11.2190    4.6944 O   0  5  0  0  0  0  0  0  0  0  0  0
    4.4113  -11.2245    6.8341 C   0  0  0  0  0  0  0  0  0  0  0  0
    4.7448  -11.7018    5.6266 F   0  0  0  0  0  0  0  0  0  0  0  0
    7.5123  -10.5848    6.4827 C   0  0  0  0  0  0  0  0  0  0  0  0
    6.9497   -9.4930    5.6897 C   0  0  0  0  0  0  0  0  0  0  0  0
    7.8440   -9.1153    4.7583 C   0  0  0  0  0  0  0  0  0  0  0  0
    9.0548   -9.9195    4.9119 C   0  0  0  0  0  0  0  0  0  0  0  0
    8.7909  -10.7227    5.9945 N   0  0  0  0  0  0  0  0  0  0  0  0
    6.8389  -13.1196    9.1946 C   0  0  0  0  0  0  0  0  0  0  0  0
    7.7728  -13.9052    9.7114 C   0  0  0  0  0  0  0  0  0  0  0  0
   13.3360  -11.4725    3.9694 C   0  0  0  0  0  0  0  0  0  0  0  0
   12.5062  -10.5439    3.5177 C   0  0  0  0  0  0  0  0  0  0  0  0
   10.1036   -9.4479    1.6481 C   0  0  0  0  0  0  0  0  0  0  0  0
   10.4525   -8.6536    0.5523 C   0  0  0  0  0  0  0  0  0  0  0  0
    3.9804   -5.1710   -1.6612 C   0  0  0  0  0  0  0  0  0  0  0  0
    3.0481   -6.0026   -2.5357 C   0  0  0  0  0  0  0  0  0  0  0  0
    1.7011   -6.1137   -1.8404 C   0  0  0  0  0  0  0  0  0  0  0  0
   -0.1428    0.8307    0.3637 H   0  0  0  0  0  0  0  0  0  0  0  0
    0.7933    0.2384   -0.9876 H   0  0  0  0  0  0  0  0  0  0  0  0
    1.2124   -0.2369    0.6408 H   0  0  0  0  0  0  0  0  0  0  0  0
   -1.6085   -3.4029   -0.1142 H   0  0  0  0  0  0  0  0  0  0  0  0
   -0.7339   -5.5118   -0.9204 H   0  0  0  0  0  0  0  0  0  0  0  0
    1.9147   -1.5037   -1.3053 H   0  0  0  0  0  0  0  0  0  0  0  0
    4.2559   -3.5949   -3.5211 H   0  0  0  0  0  0  0  0  0  0  0  0
    3.9267   -0.9986   -2.2696 H   0  0  0  0  0  0  0  0  0  0  0  0
    5.3479   -3.9390    2.5024 H   0  0  0  0  0  0  0  0  0  0  0  0
    4.5202   -2.4062    1.9586 H   0  0  0  0  0  0  0  0  0  0  0  0
    7.2908   -3.0680    2.1799 H   0  0  0  0  0  0  0  0  0  0  0  0
    6.2419   -1.4834    2.1937 H   0  0  0  0  0  0  0  0  0  0  0  0
    7.7383   -1.6075   -1.2940 H   0  0  0  0  0  0  0  0  0  0  0  0
    5.9934   -1.9425   -0.8435 H   0  0  0  0  0  0  0  0  0  0  0  0
    8.0524   -3.7332   -1.7199 H   0  0  0  0  0  0  0  0  0  0  0  0
    6.2649   -3.7960   -1.7909 H   0  0  0  0  0  0  0  0  0  0  0  0
    8.6534   -5.8417    0.0622 H   0  0  0  0  0  0  0  0  0  0  0  0
    8.0581   -4.9193    1.5217 H   0  0  0  0  0  0  0  0  0  0  0  0
   10.3973   -4.4754    0.6838 H   0  0  0  0  0  0  0  0  0  0  0  0
    9.2803   -3.1388    1.0895 H   0  0  0  0  0  0  0  0  0  0  0  0
   11.6034   -3.9158   -1.2880 H   0  0  0  0  0  0  0  0  0  0  0  0
   10.5411   -3.3455   -2.6489 H   0  0  0  0  0  0  0  0  0  0  0  0
   11.1899   -5.6406   -2.8916 H   0  0  0  0  0  0  0  0  0  0  0  0
    9.4224   -5.3556   -2.6823 H   0  0  0  0  0  0  0  0  0  0  0  0
   11.2581   -5.8477    2.2142 H   0  0  0  0  0  0  0  0  0  0  0  0
   10.5685   -7.2025    4.1055 H   0  0  0  0  0  0  0  0  0  0  0  0
   15.7523  -11.8086    5.9982 H   0  0  0  0  0  0  0  0  0  0  0  0
   17.9801  -12.5431    5.3753 H   0  0  0  0  0  0  0  0  0  0  0  0
   18.3008  -14.7660    4.4580 H   0  0  0  0  0  0  0  0  0  0  0  0
   14.4181  -15.1142    7.6490 H   0  0  0  0  0  0  0  0  0  0  0  0
   12.6563  -15.9267    9.3899 H   0  0  0  0  0  0  0  0  0  0  0  0
   10.9175  -12.9817    7.0573 H   0  0  0  0  0  0  0  0  0  0  0  0
    8.7234  -16.8420    9.4509 H   0  0  0  0  0  0  0  0  0  0  0  0
    8.6468  -18.4229   11.2898 H   0  0  0  0  0  0  0  0  0  0  0  0
   10.0557  -18.0767   13.2340 H   0  0  0  0  0  0  0  0  0  0  0  0
    5.8531  -10.2844    9.7222 H   0  0  0  0  0  0  0  0  0  0  0  0
    3.5303  -10.0117   10.3669 H   0  0  0  0  0  0  0  0  0  0  0  0
    1.7751  -10.4029    8.7386 H   0  0  0  0  0  0  0  0  0  0  0  0
    6.0144   -9.0777    5.8233 H   0  0  0  0  0  0  0  0  0  0  0  0
    7.6988   -8.3781    4.0509 H   0  0  0  0  0  0  0  0  0  0  0  0
    9.4534  -11.3381    6.3838 H   0  0  0  0  0  0  0  0  0  0  0  0
    5.8420  -13.0403    9.4494 H   0  0  0  0  0  0  0  0  0  0  0  0
    7.6279  -14.5265   10.5226 H   0  0  0  0  0  0  0  0  0  0  0  0
   14.2642  -11.6733    3.5654 H   0  0  0  0  0  0  0  0  0  0  0  0
   12.6424   -9.8683    2.7495 H   0  0  0  0  0  0  0  0  0  0  0  0
    9.7714  -10.4132    1.4968 H   0  0  0  0  0  0  0  0  0  0  0  0
   10.3724   -9.0251   -0.4072 H   0  0  0  0  0  0  0  0  0  0  0  0
    4.0073   -5.5992   -0.6810 H   0  0  0  0  0  0  0  0  0  0  0  0
    4.9498   -5.1771   -2.1141 H   0  0  0  0  0  0  0  0  0  0  0  0
    3.4623   -6.9790   -2.6772 H   0  0  0  0  0  0  0  0  0  0  0  0
    2.9289   -5.5348   -3.4906 H   0  0  0  0  0  0  0  0  0  0  0  0
    1.0009   -6.5658   -2.5114 H   0  0  0  0  0  0  0  0  0  0  0  0
    1.8286   -6.7087   -0.9603 H   0  0  0  0  0  0  0  0  0  0  0  0
  1  2  1  0  0  0  0
  1 96  1  0  0  0  0
  1 97  1  0  0  0  0
  1 98  1  0  0  0  0
  2  3  1  0  0  0  0
  3  4  1  0  0  0  0
  3  8  2  0  0  0  0
  4  5  2  0  0  0  0
  4 99  1  0  0  0  0
  5  6  1  0  0  0  0
  5100  1  0  0  0  0
  6  7  2  0  0  0  0
  6 95  1  0  0  0  0
  7  8  1  0  0  0  0
  7  9  1  0  0  0  0
  8101  1  0  0  0  0
  9 93  1  0  0  0  0
  9 13  1  1  0  0  0
  9 10  1  0  0  0  0
 10 11  1  0  0  0  0
 10102  1  0  0  0  0
 11 12  2  0  0  0  0
 11103  1  0  0  0  0
 13 14  2  0  0  0  0
 13 15  1  0  0  0  0
 15 16  1  0  0  0  0
 16 17  1  0  0  0  0
 16104  1  0  0  0  0
 16105  1  0  0  0  0
 17 18  1  0  0  0  0
 17106  1  0  0  0  0
 17107  1  0  0  0  0
 18 19  1  0  0  0  0
 19 20  1  0  0  0  0
 19108  1  0  0  0  0
 19109  1  0  0  0  0
 20 21  1  0  0  0  0
 20110  1  0  0  0  0
 20111  1  0  0  0  0
 21 22  1  0  0  0  0
 22 23  1  0  0  0  0
 22112  1  0  0  0  0
 22113  1  0  0  0  0
 23 24  1  0  0  0  0
 23114  1  0  0  0  0
 23115  1  0  0  0  0
 24 25  1  0  0  0  0
 25 26  1  0  0  0  0
 25116  1  0  0  0  0
 25117  1  0  0  0  0
 26 27  1  0  0  0  0
 26118  1  0  0  0  0
 26119  1  0  0  0  0
 27 28  1  0  0  0  0
 28 29  2  0  0  0  0
 28 30  1  0  0  0  0
 30 31  1  0  0  0  0
 30 92  2  0  0  0  0
 31 32  2  0  0  0  0
 31120  1  0  0  0  0
 32 33  1  0  0  0  0
 32121  1  0  0  0  0
 33 34  1  0  0  0  0
 33 91  2  0  0  0  0
 34 35  1  0  0  0  0
 34 85  2  0  0  0  0
 35 36  2  0  0  0  0
 35 90  1  0  0  0  0
 36 37  1  0  0  0  0
 37 38  2  0  0  0  0
 37 89  1  0  0  0  0
 38 39  1  0  0  0  0
 38 50  1  0  0  0  0
 39 40  1  0  0  0  0
 39 48  2  0  0  0  0
 40 41  2  0  0  0  0
 40122  1  0  0  0  0
 41 42  1  0  0  0  0
 41123  1  0  0  0  0
 42 43  2  0  0  0  0
 42124  1  0  0  0  0
 43 44  1  0  0  0  0
 43 48  1  0  0  0  0
 44 45  2  0  0  0  0
 44 46  2  0  0  0  0
 44 47  1  0  0  0  0
 48 49  1  0  0  0  0
 50 51  2  0  0  0  0
 50 54  1  0  0  0  0
 51 52  1  0  0  0  0
 51125  1  0  0  0  0
 52 53  2  0  0  0  0
 52126  1  0  0  0  0
 53 54  1  0  0  0  0
 53 55  1  0  0  0  0
 54127  1  0  0  0  0
 55 56  1  0  0  0  0
 55 67  2  0  0  0  0
 56 57  1  0  0  0  0
 56 65  2  0  0  0  0
 57 58  2  0  0  0  0
 57128  1  0  0  0  0
 58 59  1  0  0  0  0
 58129  1  0  0  0  0
 59 60  2  0  0  0  0
 59130  1  0  0  0  0
 60 61  1  0  0  0  0
 60 65  1  0  0  0  0
 61 62  2  0  0  0  0
 61 63  2  0  0  0  0
 61 64  1  0  0  0  0
 65 66  1  0  0  0  0
 67 68  1  0  0  0  0
 67 88  1  0  0  0  0
 68 69  2  0  0  0  0
 69 70  1  0  0  0  0
 69 87  1  0  0  0  0
 70 71  1  0  0  0  0
 70 82  2  0  0  0  0
 71 72  1  0  0  0  0
 71 80  2  0  0  0  0
 72 73  2  0  0  0  0
 72131  1  0  0  0  0
 73 74  1  0  0  0  0
 73132  1  0  0  0  0
 74 75  2  0  0  0  0
 74133  1  0  0  0  0
 75 76  1  0  0  0  0
 75 80  1  0  0  0  0
 76 77  2  0  0  0  0
 76 78  2  0  0  0  0
 76 79  1  0  0  0  0
 80 81  1  0  0  0  0
 82 83  1  0  0  0  0
 82 86  1  0  0  0  0
 83 84  2  0  0  0  0
 83134  1  0  0  0  0
 84 85  1  0  0  0  0
 84135  1  0  0  0  0
 85 86  1  0  0  0  0
 86136  1  0  0  0  0
 87 88  2  0  0  0  0
 87137  1  0  0  0  0
 88138  1  0  0  0  0
 89 90  2  0  0  0  0
 89139  1  0  0  0  0
 90140  1  0  0  0  0
 91 92  1  0  0  0  0
 91141  1  0  0  0  0
 92142  1  0  0  0  0
 93 94  1  0  0  0  0
 93143  1  0  0  0  0
 93144  1  0  0  0  0
 94 95  1  0  0  0  0
 94145  1  0  0  0  0
 94146  1  0  0  0  0
 95147  1  0  0  0  0
 95148  1  0  0  0  0
M  CHG  3  47  -1  64  -1  79  -1
M  END
$$$$
