ligands/10-CHEMBL521
 OpenBabel10182222423D

132141  0  0  0  0  0  0  0  0999 V2000
    1.4498    0.3402   -0.0744 C   0  0  0  0  0  0  0  0  0  0  0  0
    0.6406    1.2747    0.8292 C   0  0  0  0  0  0  0  0  0  0  0  0
    0.9752    2.7308    0.5020 C   0  0  0  0  0  0  0  0  0  0  0  0
   -0.8764    1.0378    0.6908 C   0  0  0  0  0  0  0  0  0  0  0  0
   -1.3110   -0.3022    1.2322 C   0  0  0  0  0  0  0  0  0  0  0  0
   -1.3880   -0.5149    2.6120 C   0  0  0  0  0  0  0  0  0  0  0  0
   -1.7218   -1.7725    3.1220 C   0  0  0  0  0  0  0  0  0  0  0  0
   -2.0250   -2.8391    2.2666 C   0  0  0  0  0  0  0  0  0  0  0  0
   -2.4210   -4.2236    2.7574 C   0  0  1  0  0  0  0  0  0  0  0  0
   -1.7783   -4.7018    4.0615 C   0  0  0  0  0  0  0  0  0  0  0  0
   -3.9316   -4.4833    2.6912 C   0  0  0  0  0  0  0  0  0  0  0  0
   -4.3924   -5.2545    1.8415 O   0  0  0  0  0  0  0  0  0  0  0  0
   -4.8219   -3.9129    3.5487 N   0  0  0  0  0  0  0  0  0  0  0  0
   -4.6337   -2.9191    4.5825 C   0  0  0  0  0  0  0  0  0  0  0  0
   -5.1240   -1.5394    4.1458 C   0  0  0  0  0  0  0  0  0  0  0  0
   -6.6288   -1.3228    4.3369 C   0  0  0  0  0  0  0  0  0  0  0  0
   -7.1301   -1.4396    5.7824 C   0  0  0  0  0  0  0  0  0  0  0  0
   -6.3902   -0.5778    6.8107 C   0  0  0  0  0  0  0  0  0  0  0  0
   -6.4355    0.9235    6.5398 C   0  0  0  0  0  0  0  0  0  0  0  0
   -7.7911    1.4435    6.5974 N   0  0  0  0  0  0  0  0  0  0  0  0
   -8.3128    2.4539    7.3634 C   0  0  0  0  0  0  0  0  0  0  0  0
   -9.5283    2.6060    7.4304 O   0  0  0  0  0  0  0  0  0  0  0  0
   -7.4212    3.3659    8.1133 C   0  0  0  0  0  0  0  0  0  0  0  0
   -7.7913    3.7561    9.4041 C   0  0  0  0  0  0  0  0  0  0  0  0
   -6.9894    4.6488   10.1190 C   0  0  0  0  0  0  0  0  0  0  0  0
   -5.7972    5.1348    9.5597 C   0  0  0  0  0  0  0  0  0  0  0  0
   -4.9495    6.1104   10.2906 C   0  0  0  0  0  0  0  0  0  0  0  0
   -4.8025    7.5127    9.7645 C   0  0  0  0  0  0  0  0  0  0  0  0
   -4.0494    8.4898   10.2038 N   0  0  0  0  0  0  0  0  0  0  0  0
   -4.2661    9.5531    9.3369 C   0  0  0  0  0  0  0  0  0  0  0  0
   -3.7721   10.8125    9.4025 C   0  0  0  0  0  0  0  0  0  0  0  0
   -4.1989   11.7815    8.3392 C   0  0  0  0  0  0  0  0  0  0  0  0
   -5.5054   12.2924    8.3017 C   0  0  0  0  0  0  0  0  0  0  0  0
   -6.4190   11.8740    9.1906 F   0  0  0  0  0  0  0  0  0  0  0  0
   -5.8884   13.2109    7.3283 C   0  0  0  0  0  0  0  0  0  0  0  0
   -7.1528   13.6533    7.2875 F   0  0  0  0  0  0  0  0  0  0  0  0
   -4.9666   13.6607    6.3952 C   0  0  0  0  0  0  0  0  0  0  0  0
   -5.3337   14.5534    5.4655 F   0  0  0  0  0  0  0  0  0  0  0  0
   -3.6656   13.1809    6.4227 C   0  0  0  0  0  0  0  0  0  0  0  0
   -2.7709   13.6239    5.5285 F   0  0  0  0  0  0  0  0  0  0  0  0
   -3.2867   12.2407    7.3777 C   0  0  0  0  0  0  0  0  0  0  0  0
   -2.0242   11.7874    7.3716 F   0  0  0  0  0  0  0  0  0  0  0  0
   -2.8844   11.2818   10.4331 C   0  0  0  0  0  0  0  0  0  0  0  0
   -2.3275   12.5391   10.5900 C   0  0  0  0  0  0  0  0  0  0  0  0
   -1.5259   12.5232   11.7364 C   0  0  0  0  0  0  0  0  0  0  0  0
   -1.6163   11.2678   12.3147 C   0  0  0  0  0  0  0  0  0  0  0  0
   -2.4358   10.5102   11.4945 N   0  0  0  0  0  0  0  0  0  0  0  0
   -1.0053   10.7957   13.5291 C   0  0  0  0  0  0  0  0  0  0  0  0
   -0.2375   11.7860   14.3536 C   0  0  0  0  0  0  0  0  0  0  0  0
    1.1616   11.7529   14.4361 C   0  0  0  0  0  0  0  0  0  0  0  0
    1.8526   10.7928   13.8033 F   0  0  0  0  0  0  0  0  0  0  0  0
    1.8534   12.6833   15.2069 C   0  0  0  0  0  0  0  0  0  0  0  0
    3.1870   12.6032   15.3123 F   0  0  0  0  0  0  0  0  0  0  0  0
    1.1641   13.6821   15.8789 C   0  0  0  0  0  0  0  0  0  0  0  0
    1.8326   14.5781   16.6178 F   0  0  0  0  0  0  0  0  0  0  0  0
   -0.2183   13.7468   15.7922 C   0  0  0  0  0  0  0  0  0  0  0  0
   -0.8848   14.7181   16.4311 F   0  0  0  0  0  0  0  0  0  0  0  0
   -0.9151   12.8015   15.0457 C   0  0  0  0  0  0  0  0  0  0  0  0
   -2.2532   12.8800   14.9920 F   0  0  0  0  0  0  0  0  0  0  0  0
   -1.0887    9.5277   13.9998 C   0  0  0  0  0  0  0  0  0  0  0  0
   -1.7744    8.4422   13.4715 N   0  0  0  0  0  0  0  0  0  0  0  0
   -1.5379    7.4384   14.2806 C   0  0  0  0  0  0  0  0  0  0  0  0
   -2.0624    6.0276   14.2261 C   0  0  0  0  0  0  0  0  0  0  0  0
   -1.6493    5.0285   15.2461 C   0  0  0  0  0  0  0  0  0  0  0  0
   -2.0497    5.1561   16.5839 C   0  0  0  0  0  0  0  0  0  0  0  0
   -2.8281    6.1837   16.9542 F   0  0  0  0  0  0  0  0  0  0  0  0
   -1.6063    4.2630   17.5569 C   0  0  0  0  0  0  0  0  0  0  0  0
   -1.9546    4.4445   18.8380 F   0  0  0  0  0  0  0  0  0  0  0  0
   -0.7839    3.2035   17.2052 C   0  0  0  0  0  0  0  0  0  0  0  0
   -0.3518    2.3487   18.1421 F   0  0  0  0  0  0  0  0  0  0  0  0
   -0.4002    3.0388   15.8828 C   0  0  0  0  0  0  0  0  0  0  0  0
    0.3836    2.0086   15.5368 F   0  0  0  0  0  0  0  0  0  0  0  0
   -0.8187    3.9489   14.9142 C   0  0  0  0  0  0  0  0  0  0  0  0
   -0.4130    3.7775   13.6475 F   0  0  0  0  0  0  0  0  0  0  0  0
   -2.9297    5.6871   13.2539 C   0  0  0  0  0  0  0  0  0  0  0  0
   -3.5419    4.3727   13.0827 C   0  0  0  0  0  0  0  0  0  0  0  0
   -4.3210    4.3911   11.9885 C   0  0  0  0  0  0  0  0  0  0  0  0
   -4.2850    5.7294   11.3980 C   0  0  0  0  0  0  0  0  0  0  0  0
   -3.4391    6.4327   12.2190 N   0  0  0  0  0  0  0  0  0  0  0  0
   -0.6379    7.7677   15.3951 C   0  0  0  0  0  0  0  0  0  0  0  0
   -0.4349    9.0632   15.2047 C   0  0  0  0  0  0  0  0  0  0  0  0
   -5.1772    9.0879    8.3141 C   0  0  0  0  0  0  0  0  0  0  0  0
   -5.5904    7.8553    8.5692 C   0  0  0  0  0  0  0  0  0  0  0  0
   -5.4330    4.7324    8.2655 C   0  0  0  0  0  0  0  0  0  0  0  0
   -6.2649    3.8912    7.5291 C   0  0  0  0  0  0  0  0  0  0  0  0
   -1.9591   -2.6119    0.8812 C   0  0  0  0  0  0  0  0  0  0  0  0
   -1.5972   -1.3637    0.3697 C   0  0  0  0  0  0  0  0  0  0  0  0
    2.4938    0.5373    0.0523 H   0  0  0  0  0  0  0  0  0  0  0  0
    1.1767    0.5067   -1.0955 H   0  0  0  0  0  0  0  0  0  0  0  0
    1.2443   -0.6764    0.1886 H   0  0  0  0  0  0  0  0  0  0  0  0
    0.9091    1.0614    1.8428 H   0  0  0  0  0  0  0  0  0  0  0  0
    0.7052    2.9396   -0.5121 H   0  0  0  0  0  0  0  0  0  0  0  0
    2.0247    2.8936    0.6324 H   0  0  0  0  0  0  0  0  0  0  0  0
    0.4298    3.3779    1.1568 H   0  0  0  0  0  0  0  0  0  0  0  0
   -1.1372    1.0886   -0.3457 H   0  0  0  0  0  0  0  0  0  0  0  0
   -1.3738    1.7930    1.2628 H   0  0  0  0  0  0  0  0  0  0  0  0
   -1.1964    0.2647    3.2604 H   0  0  0  0  0  0  0  0  0  0  0  0
   -1.7452   -1.9173    4.1435 H   0  0  0  0  0  0  0  0  0  0  0  0
   -1.9661   -4.8637    2.0306 H   0  0  0  0  0  0  0  0  0  0  0  0
   -2.1600   -4.1267    4.8791 H   0  0  0  0  0  0  0  0  0  0  0  0
   -0.7172   -4.5775    4.0027 H   0  0  0  0  0  0  0  0  0  0  0  0
   -2.0084   -5.7355    4.2144 H   0  0  0  0  0  0  0  0  0  0  0  0
   -5.7486   -4.2298    3.4484 H   0  0  0  0  0  0  0  0  0  0  0  0
   -3.5915   -2.8572    4.8167 H   0  0  0  0  0  0  0  0  0  0  0  0
   -5.2050   -3.2180    5.4364 H   0  0  0  0  0  0  0  0  0  0  0  0
   -4.8953   -1.4141    3.1081 H   0  0  0  0  0  0  0  0  0  0  0  0
   -4.6271   -0.8237    4.7669 H   0  0  0  0  0  0  0  0  0  0  0  0
   -7.1451   -2.0520    3.7481 H   0  0  0  0  0  0  0  0  0  0  0  0
   -6.8228   -0.3141    4.0372 H   0  0  0  0  0  0  0  0  0  0  0  0
   -7.0365   -2.4626    6.0818 H   0  0  0  0  0  0  0  0  0  0  0  0
   -8.1387   -1.0826    5.7724 H   0  0  0  0  0  0  0  0  0  0  0  0
   -5.3646   -0.8827    6.8241 H   0  0  0  0  0  0  0  0  0  0  0  0
   -6.8885   -0.7301    7.7452 H   0  0  0  0  0  0  0  0  0  0  0  0
   -6.0339    1.1116    5.5661 H   0  0  0  0  0  0  0  0  0  0  0  0
   -5.8594    1.4146    7.2960 H   0  0  0  0  0  0  0  0  0  0  0  0
   -8.4328    1.0032    5.9945 H   0  0  0  0  0  0  0  0  0  0  0  0
   -8.6559    3.3849    9.8280 H   0  0  0  0  0  0  0  0  0  0  0  0
   -7.2749    4.9526   11.0631 H   0  0  0  0  0  0  0  0  0  0  0  0
   -2.4777   13.3490    9.9683 H   0  0  0  0  0  0  0  0  0  0  0  0
   -0.9631   13.3123   12.0908 H   0  0  0  0  0  0  0  0  0  0  0  0
   -2.6657    9.5645   11.6429 H   0  0  0  0  0  0  0  0  0  0  0  0
   -3.3991    3.5601   13.7026 H   0  0  0  0  0  0  0  0  0  0  0  0
   -4.8588    3.5897   11.6229 H   0  0  0  0  0  0  0  0  0  0  0  0
   -3.2184    7.3819   12.0792 H   0  0  0  0  0  0  0  0  0  0  0  0
   -0.2624    7.1513   16.1327 H   0  0  0  0  0  0  0  0  0  0  0  0
    0.1187    9.6643   15.8350 H   0  0  0  0  0  0  0  0  0  0  0  0
   -5.4671    9.6430    7.4938 H   0  0  0  0  0  0  0  0  0  0  0  0
   -6.2841    7.2840    8.0619 H   0  0  0  0  0  0  0  0  0  0  0  0
   -4.5442    5.0613    7.8569 H   0  0  0  0  0  0  0  0  0  0  0  0
   -6.0274    3.6561    6.5527 H   0  0  0  0  0  0  0  0  0  0  0  0
   -2.1821   -3.3811    0.2303 H   0  0  0  0  0  0  0  0  0  0  0  0
   -1.5408   -1.2245   -0.6513 H   0  0  0  0  0  0  0  0  0  0  0  0
  1  2  1  0  0  0  0
  1 88  1  0  0  0  0
  1 89  1  0  0  0  0
  1 90  1  0  0  0  0
  2  3  1  0  0  0  0
  2  4  1  0  0  0  0
  2 91  1  0  0  0  0
  3 92  1  0  0  0  0
  3 93  1  0  0  0  0
  3 94  1  0  0  0  0
  4  5  1  0  0  0  0
  4 95  1  0  0  0  0
  4 96  1  0  0  0  0
  5  6  1  0  0  0  0
  5 87  2  0  0  0  0
  6  7  2  0  0  0  0
  6 97  1  0  0  0  0
  7  8  1  0  0  0  0
  7 98  1  0  0  0  0
  8  9  1  0  0  0  0
  8 86  2  0  0  0  0
  9 10  1  0  0  0  0
  9 11  1  0  0  0  0
  9 99  1  6  0  0  0
 10100  1  0  0  0  0
 10101  1  0  0  0  0
 10102  1  0  0  0  0
 11 12  2  0  0  0  0
 11 13  1  0  0  0  0
 13 14  1  0  0  0  0
 13103  1  0  0  0  0
 14 15  1  0  0  0  0
 14104  1  0  0  0  0
 14105  1  0  0  0  0
 15 16  1  0  0  0  0
 15106  1  0  0  0  0
 15107  1  0  0  0  0
 16 17  1  0  0  0  0
 16108  1  0  0  0  0
 16109  1  0  0  0  0
 17 18  1  0  0  0  0
 17110  1  0  0  0  0
 17111  1  0  0  0  0
 18 19  1  0  0  0  0
 18112  1  0  0  0  0
 18113  1  0  0  0  0
 19 20  1  0  0  0  0
 19114  1  0  0  0  0
 19115  1  0  0  0  0
 20 21  1  0  0  0  0
 20116  1  0  0  0  0
 21 22  2  0  0  0  0
 21 23  1  0  0  0  0
 23 24  1  0  0  0  0
 23 85  2  0  0  0  0
 24 25  2  0  0  0  0
 24117  1  0  0  0  0
 25 26  1  0  0  0  0
 25118  1  0  0  0  0
 26 27  1  0  0  0  0
 26 84  2  0  0  0  0
 27 28  1  0  0  0  0
 27 78  2  0  0  0  0
 28 29  2  0  0  0  0
 28 83  1  0  0  0  0
 29 30  1  0  0  0  0
 30 31  2  0  0  0  0
 30 82  1  0  0  0  0
 31 32  1  0  0  0  0
 31 43  1  0  0  0  0
 32 33  1  0  0  0  0
 32 41  2  0  0  0  0
 33 34  1  0  0  0  0
 33 35  2  0  0  0  0
 35 36  1  0  0  0  0
 35 37  1  0  0  0  0
 37 38  1  0  0  0  0
 37 39  2  0  0  0  0
 39 40  1  0  0  0  0
 39 41  1  0  0  0  0
 41 42  1  0  0  0  0
 43 44  2  0  0  0  0
 43 47  1  0  0  0  0
 44 45  1  0  0  0  0
 44119  1  0  0  0  0
 45 46  2  0  0  0  0
 45120  1  0  0  0  0
 46 47  1  0  0  0  0
 46 48  1  0  0  0  0
 47121  1  0  0  0  0
 48 49  1  0  0  0  0
 48 60  2  0  0  0  0
 49 50  1  0  0  0  0
 49 58  2  0  0  0  0
 50 51  1  0  0  0  0
 50 52  2  0  0  0  0
 52 53  1  0  0  0  0
 52 54  1  0  0  0  0
 54 55  1  0  0  0  0
 54 56  2  0  0  0  0
 56 57  1  0  0  0  0
 56 58  1  0  0  0  0
 58 59  1  0  0  0  0
 60 61  1  0  0  0  0
 60 81  1  0  0  0  0
 61 62  2  0  0  0  0
 62 63  1  0  0  0  0
 62 80  1  0  0  0  0
 63 64  1  0  0  0  0
 63 75  2  0  0  0  0
 64 65  1  0  0  0  0
 64 73  2  0  0  0  0
 65 66  1  0  0  0  0
 65 67  2  0  0  0  0
 67 68  1  0  0  0  0
 67 69  1  0  0  0  0
 69 70  1  0  0  0  0
 69 71  2  0  0  0  0
 71 72  1  0  0  0  0
 71 73  1  0  0  0  0
 73 74  1  0  0  0  0
 75 76  1  0  0  0  0
 75 79  1  0  0  0  0
 76 77  2  0  0  0  0
 76122  1  0  0  0  0
 77 78  1  0  0  0  0
 77123  1  0  0  0  0
 78 79  1  0  0  0  0
 79124  1  0  0  0  0
 80 81  2  0  0  0  0
 80125  1  0  0  0  0
 81126  1  0  0  0  0
 82 83  2  0  0  0  0
 82127  1  0  0  0  0
 83128  1  0  0  0  0
 84 85  1  0  0  0  0
 84129  1  0  0  0  0
 85130  1  0  0  0  0
 86 87  1  0  0  0  0
 86131  1  0  0  0  0
 87132  1  0  0  0  0
M  END
$$$$
