ligands/12-CHEMBL1201124
 OpenBabel10182222423D

131142  0  0  0  0  0  0  0  0999 V2000
    1.0323    0.2318   -0.2033 O   0  0  0  0  0  0  0  0  0  0  0  0
    2.2480    0.1491   -0.0539 C   0  0  0  0  0  0  0  0  0  0  0  0
    2.9412   -0.9179   -0.5704 N   0  0  0  0  0  0  0  0  0  0  0  0
    4.3204   -1.3221   -0.3389 C   0  0  0  0  0  0  0  0  0  0  0  0
    4.4183   -2.7294    0.2383 C   0  0  0  0  0  0  0  0  0  0  0  0
    3.9642   -3.8366   -0.7136 C   0  0  0  0  0  0  0  0  0  0  0  0
    4.7146   -3.8928   -2.0498 C   0  0  0  0  0  0  0  0  0  0  0  0
    6.2444   -3.9510   -1.9357 C   0  0  0  0  0  0  0  0  0  0  0  0
    6.7566   -5.2128   -1.2388 C   0  0  0  0  0  0  0  0  0  0  0  0
    6.6847   -6.3481   -2.1394 N   0  0  0  0  0  0  0  0  0  0  0  0
    7.6486   -6.9772   -2.8664 C   0  0  0  0  0  0  0  0  0  0  0  0
    7.2584   -7.8052   -3.6984 O   0  0  0  0  0  0  0  0  0  0  0  0
    9.1414   -6.8270   -2.5975 C   0  0  2  0  0  0  0  0  0  0  0  0
    9.5168   -7.4777   -1.2439 C   0  0  0  0  0  0  0  0  0  0  0  0
   10.5646   -6.5631   -0.5980 C   0  0  0  0  0  0  0  0  0  0  0  0
   10.4359   -5.3163   -1.3320 N   0  0  0  0  0  0  0  0  0  0  0  0
   10.7813   -4.0176   -1.1058 C   0  0  0  0  0  0  0  0  0  0  0  0
   11.4370   -3.4215    0.0487 C   0  0  0  0  0  0  0  0  0  0  0  0
   11.2954   -2.2347    0.3408 O   0  0  0  0  0  0  0  0  0  0  0  0
   12.2926   -4.2312    0.9506 C   0  0  0  0  0  0  0  0  0  0  0  0
   12.1502   -4.0677    2.3348 C   0  0  0  0  0  0  0  0  0  0  0  0
   12.9371   -4.8159    3.2109 C   0  0  0  0  0  0  0  0  0  0  0  0
   13.8721   -5.7200    2.7071 C   0  0  0  0  0  0  0  0  0  0  0  0
   14.0374   -5.8630    1.3285 C   0  0  0  0  0  0  0  0  0  0  0  0
   13.2594   -5.1086    0.4477 C   0  0  0  0  0  0  0  0  0  0  0  0
   10.2903   -3.3243   -2.2153 C   0  0  0  0  0  0  0  0  0  0  0  0
    9.6131   -4.2283   -3.0813 C   0  0  0  0  0  0  0  0  0  0  0  0
    9.6574   -5.4416   -2.4517 C   0  0  0  0  0  0  0  0  0  0  0  0
    2.9682    1.1914    0.7077 C   0  0  0  0  0  0  0  0  0  0  0  0
    4.1793    1.7040    0.2384 C   0  0  0  0  0  0  0  0  0  0  0  0
    4.9209    2.5636    1.0402 C   0  0  0  0  0  0  0  0  0  0  0  0
    4.4054    3.0201    2.2645 C   0  0  0  0  0  0  0  0  0  0  0  0
    5.2100    3.9625    3.0833 C   0  0  0  0  0  0  0  0  0  0  0  0
    5.7369    3.5619    4.4333 C   0  0  0  0  0  0  0  0  0  0  0  0
    6.4917    4.2422    5.2609 N   0  0  0  0  0  0  0  0  0  0  0  0
    6.6595    3.4338    6.3776 C   0  0  0  0  0  0  0  0  0  0  0  0
    7.3818    3.6797    7.4979 C   0  0  0  0  0  0  0  0  0  0  0  0
    7.3584    2.6423    8.5842 C   0  0  0  0  0  0  0  0  0  0  0  0
    8.0130    1.4093    8.4466 C   0  0  0  0  0  0  0  0  0  0  0  0
    8.6444    1.1034    7.3032 F   0  0  0  0  0  0  0  0  0  0  0  0
    7.9905    0.4670    9.4727 C   0  0  0  0  0  0  0  0  0  0  0  0
    8.5843   -0.7224    9.3012 F   0  0  0  0  0  0  0  0  0  0  0  0
    7.3442    0.7512   10.6664 C   0  0  0  0  0  0  0  0  0  0  0  0
    7.3292   -0.1543   11.6544 F   0  0  0  0  0  0  0  0  0  0  0  0
    6.7076    1.9715   10.8324 C   0  0  0  0  0  0  0  0  0  0  0  0
    6.0934    2.2533   11.9899 F   0  0  0  0  0  0  0  0  0  0  0  0
    6.7040    2.9041    9.7983 C   0  0  0  0  0  0  0  0  0  0  0  0
    6.0683    4.0703    9.9863 F   0  0  0  0  0  0  0  0  0  0  0  0
    8.1524    4.8767    7.7212 C   0  0  0  0  0  0  0  0  0  0  0  0
    8.9522    5.2002    8.8041 C   0  0  0  0  0  0  0  0  0  0  0  0
    9.4660    6.4861    8.6022 C   0  0  0  0  0  0  0  0  0  0  0  0
    9.0289    6.9436    7.3698 C   0  0  0  0  0  0  0  0  0  0  0  0
    8.2186    5.9493    6.8432 N   0  0  0  0  0  0  0  0  0  0  0  0
    9.3289    8.1940    6.7199 C   0  0  0  0  0  0  0  0  0  0  0  0
   10.2635    9.1411    7.4136 C   0  0  0  0  0  0  0  0  0  0  0  0
    9.8123   10.3433    7.9776 C   0  0  0  0  0  0  0  0  0  0  0  0
    8.5208   10.6926    7.8789 F   0  0  0  0  0  0  0  0  0  0  0  0
   10.6985   11.2157    8.6039 C   0  0  0  0  0  0  0  0  0  0  0  0
   10.2555   12.3845    9.0876 F   0  0  0  0  0  0  0  0  0  0  0  0
   12.0417   10.8867    8.7106 C   0  0  0  0  0  0  0  0  0  0  0  0
   12.8928   11.7274    9.3146 F   0  0  0  0  0  0  0  0  0  0  0  0
   12.5045    9.6912    8.1821 C   0  0  0  0  0  0  0  0  0  0  0  0
   13.7998    9.3663    8.2947 F   0  0  0  0  0  0  0  0  0  0  0  0
   11.6271    8.8308    7.5291 C   0  0  0  0  0  0  0  0  0  0  0  0
   12.1076    7.6901    7.0119 F   0  0  0  0  0  0  0  0  0  0  0  0
    8.8533    8.5751    5.5091 C   0  0  0  0  0  0  0  0  0  0  0  0
    8.0161    7.8844    4.6452 N   0  0  0  0  0  0  0  0  0  0  0  0
    7.8343    8.6724    3.6141 C   0  0  0  0  0  0  0  0  0  0  0  0
    7.0421    8.4286    2.3617 C   0  0  0  0  0  0  0  0  0  0  0  0
    7.0031    9.4347    1.2702 C   0  0  0  0  0  0  0  0  0  0  0  0
    8.1447    9.7109    0.5056 C   0  0  0  0  0  0  0  0  0  0  0  0
    9.2996    9.0849    0.7763 F   0  0  0  0  0  0  0  0  0  0  0  0
    8.1133   10.6561   -0.5171 C   0  0  0  0  0  0  0  0  0  0  0  0
    9.2289   10.9313   -1.2063 F   0  0  0  0  0  0  0  0  0  0  0  0
    6.9330   11.3210   -0.8141 C   0  0  0  0  0  0  0  0  0  0  0  0
    6.9015   12.2246   -1.8029 F   0  0  0  0  0  0  0  0  0  0  0  0
    5.7872   11.0532   -0.0806 C   0  0  0  0  0  0  0  0  0  0  0  0
    4.6409   11.6817   -0.3744 F   0  0  0  0  0  0  0  0  0  0  0  0
    5.8251   10.1300    0.9613 C   0  0  0  0  0  0  0  0  0  0  0  0
    4.7047    9.8973    1.6606 F   0  0  0  0  0  0  0  0  0  0  0  0
    6.3760    7.2678    2.2242 C   0  0  0  0  0  0  0  0  0  0  0  0
    5.5743    6.8896    1.0657 C   0  0  0  0  0  0  0  0  0  0  0  0
    5.0350    5.6820    1.2853 C   0  0  0  0  0  0  0  0  0  0  0  0
    5.4995    5.1771    2.5788 C   0  0  0  0  0  0  0  0  0  0  0  0
    6.2704    6.1962    3.0761 N   0  0  0  0  0  0  0  0  0  0  0  0
    8.5153    9.9693    3.7198 C   0  0  0  0  0  0  0  0  0  0  0  0
    9.1548    9.8417    4.8736 C   0  0  0  0  0  0  0  0  0  0  0  0
    5.9078    2.2209    6.1351 C   0  0  0  0  0  0  0  0  0  0  0  0
    5.3614    2.2286    4.9270 C   0  0  0  0  0  0  0  0  0  0  0  0
    3.1325    2.5917    2.6721 C   0  0  0  0  0  0  0  0  0  0  0  0
    2.4252    1.6595    1.9076 C   0  0  0  0  0  0  0  0  0  0  0  0
    2.4317   -1.4926   -1.1863 H   0  0  0  0  0  0  0  0  0  0  0  0
    4.7700   -0.6358    0.3479 H   0  0  0  0  0  0  0  0  0  0  0  0
    4.8269   -1.3175   -1.2814 H   0  0  0  0  0  0  0  0  0  0  0  0
    3.8097   -2.7735    1.1172 H   0  0  0  0  0  0  0  0  0  0  0  0
    5.4545   -2.9054    0.4386 H   0  0  0  0  0  0  0  0  0  0  0  0
    2.9253   -3.6888   -0.9227 H   0  0  0  0  0  0  0  0  0  0  0  0
    4.1710   -4.7611   -0.2162 H   0  0  0  0  0  0  0  0  0  0  0  0
    4.4571   -3.0193   -2.6115 H   0  0  0  0  0  0  0  0  0  0  0  0
    4.4160   -4.8059   -2.5210 H   0  0  0  0  0  0  0  0  0  0  0  0
    6.5752   -3.0989   -1.3795 H   0  0  0  0  0  0  0  0  0  0  0  0
    6.6342   -3.9614   -2.9321 H   0  0  0  0  0  0  0  0  0  0  0  0
    6.1555   -5.4082   -0.3754 H   0  0  0  0  0  0  0  0  0  0  0  0
    7.7754   -5.0618   -0.9487 H   0  0  0  0  0  0  0  0  0  0  0  0
    5.7829   -6.7294   -2.2426 H   0  0  0  0  0  0  0  0  0  0  0  0
    9.5675   -7.2796   -3.4684 H   0  0  0  0  0  0  0  0  0  0  0  0
    9.9257   -8.4535   -1.4035 H   0  0  0  0  0  0  0  0  0  0  0  0
    8.6579   -7.5870   -0.6153 H   0  0  0  0  0  0  0  0  0  0  0  0
   11.5474   -6.9713   -0.7094 H   0  0  0  0  0  0  0  0  0  0  0  0
   10.4149   -6.4410    0.4544 H   0  0  0  0  0  0  0  0  0  0  0  0
   11.4629   -3.3935    2.7065 H   0  0  0  0  0  0  0  0  0  0  0  0
   12.8275   -4.7005    4.2306 H   0  0  0  0  0  0  0  0  0  0  0  0
   14.4431   -6.2846    3.3553 H   0  0  0  0  0  0  0  0  0  0  0  0
   14.7357   -6.5273    0.9595 H   0  0  0  0  0  0  0  0  0  0  0  0
   13.3972   -5.1980   -0.5711 H   0  0  0  0  0  0  0  0  0  0  0  0
   10.4017   -2.3119   -2.3813 H   0  0  0  0  0  0  0  0  0  0  0  0
    9.1797   -4.0134   -3.9929 H   0  0  0  0  0  0  0  0  0  0  0  0
    4.5224    1.4456   -0.7000 H   0  0  0  0  0  0  0  0  0  0  0  0
    5.8578    2.8689    0.7336 H   0  0  0  0  0  0  0  0  0  0  0  0
    9.1377    4.5965    9.6203 H   0  0  0  0  0  0  0  0  0  0  0  0
   10.0683    7.0055    9.2598 H   0  0  0  0  0  0  0  0  0  0  0  0
    7.7581    5.9972    5.9744 H   0  0  0  0  0  0  0  0  0  0  0  0
    5.4435    7.4592    0.2151 H   0  0  0  0  0  0  0  0  0  0  0  0
    4.3946    5.1872    0.6448 H   0  0  0  0  0  0  0  0  0  0  0  0
    6.7059    6.1628    3.9584 H   0  0  0  0  0  0  0  0  0  0  0  0
    8.4999   10.7690    3.0677 H   0  0  0  0  0  0  0  0  0  0  0  0
    9.7876   10.5545    5.2693 H   0  0  0  0  0  0  0  0  0  0  0  0
    5.8098    1.4501    6.8143 H   0  0  0  0  0  0  0  0  0  0  0  0
    4.8148    1.4909    4.4558 H   0  0  0  0  0  0  0  0  0  0  0  0
    2.7173    2.9663    3.5394 H   0  0  0  0  0  0  0  0  0  0  0  0
    1.5055    1.3181    2.2279 H   0  0  0  0  0  0  0  0  0  0  0  0
  1  2  2  0  0  0  0
  2  3  1  0  0  0  0
  2 29  1  0  0  0  0
  3  4  1  0  0  0  0
  3 92  1  0  0  0  0
  4  5  1  0  0  0  0
  4 93  1  0  0  0  0
  4 94  1  0  0  0  0
  5  6  1  0  0  0  0
  5 95  1  0  0  0  0
  5 96  1  0  0  0  0
  6  7  1  0  0  0  0
  6 97  1  0  0  0  0
  6 98  1  0  0  0  0
  7  8  1  0  0  0  0
  7 99  1  0  0  0  0
  7100  1  0  0  0  0
  8  9  1  0  0  0  0
  8101  1  0  0  0  0
  8102  1  0  0  0  0
  9 10  1  0  0  0  0
  9103  1  0  0  0  0
  9104  1  0  0  0  0
 10 11  1  0  0  0  0
 10105  1  0  0  0  0
 11 12  2  0  0  0  0
 11 13  1  0  0  0  0
 13 14  1  0  0  0  0
 13 28  1  0  0  0  0
 13106  1  6  0  0  0
 14 15  1  0  0  0  0
 14107  1  0  0  0  0
 14108  1  0  0  0  0
 15 16  1  0  0  0  0
 15109  1  0  0  0  0
 15110  1  0  0  0  0
 16 17  1  0  0  0  0
 16 28  1  0  0  0  0
 17 18  1  0  0  0  0
 17 26  2  0  0  0  0
 18 19  2  0  0  0  0
 18 20  1  0  0  0  0
 20 21  1  0  0  0  0
 20 25  2  0  0  0  0
 21 22  2  0  0  0  0
 21111  1  0  0  0  0
 22 23  1  0  0  0  0
 22112  1  0  0  0  0
 23 24  2  0  0  0  0
 23113  1  0  0  0  0
 24 25  1  0  0  0  0
 24114  1  0  0  0  0
 25115  1  0  0  0  0
 26 27  1  0  0  0  0
 26116  1  0  0  0  0
 27 28  2  0  0  0  0
 27117  1  0  0  0  0
 29 30  1  0  0  0  0
 29 91  2  0  0  0  0
 30 31  2  0  0  0  0
 30118  1  0  0  0  0
 31 32  1  0  0  0  0
 31119  1  0  0  0  0
 32 33  1  0  0  0  0
 32 90  2  0  0  0  0
 33 34  1  0  0  0  0
 33 84  2  0  0  0  0
 34 35  2  0  0  0  0
 34 89  1  0  0  0  0
 35 36  1  0  0  0  0
 36 37  2  0  0  0  0
 36 88  1  0  0  0  0
 37 38  1  0  0  0  0
 37 49  1  0  0  0  0
 38 39  1  0  0  0  0
 38 47  2  0  0  0  0
 39 40  1  0  0  0  0
 39 41  2  0  0  0  0
 41 42  1  0  0  0  0
 41 43  1  0  0  0  0
 43 44  1  0  0  0  0
 43 45  2  0  0  0  0
 45 46  1  0  0  0  0
 45 47  1  0  0  0  0
 47 48  1  0  0  0  0
 49 50  2  0  0  0  0
 49 53  1  0  0  0  0
 50 51  1  0  0  0  0
 50120  1  0  0  0  0
 51 52  2  0  0  0  0
 51121  1  0  0  0  0
 52 53  1  0  0  0  0
 52 54  1  0  0  0  0
 53122  1  0  0  0  0
 54 55  1  0  0  0  0
 54 66  2  0  0  0  0
 55 56  1  0  0  0  0
 55 64  2  0  0  0  0
 56 57  1  0  0  0  0
 56 58  2  0  0  0  0
 58 59  1  0  0  0  0
 58 60  1  0  0  0  0
 60 61  1  0  0  0  0
 60 62  2  0  0  0  0
 62 63  1  0  0  0  0
 62 64  1  0  0  0  0
 64 65  1  0  0  0  0
 66 67  1  0  0  0  0
 66 87  1  0  0  0  0
 67 68  2  0  0  0  0
 68 69  1  0  0  0  0
 68 86  1  0  0  0  0
 69 70  1  0  0  0  0
 69 81  2  0  0  0  0
 70 71  1  0  0  0  0
 70 79  2  0  0  0  0
 71 72  1  0  0  0  0
 71 73  2  0  0  0  0
 73 74  1  0  0  0  0
 73 75  1  0  0  0  0
 75 76  1  0  0  0  0
 75 77  2  0  0  0  0
 77 78  1  0  0  0  0
 77 79  1  0  0  0  0
 79 80  1  0  0  0  0
 81 82  1  0  0  0  0
 81 85  1  0  0  0  0
 82 83  2  0  0  0  0
 82123  1  0  0  0  0
 83 84  1  0  0  0  0
 83124  1  0  0  0  0
 84 85  1  0  0  0  0
 85125  1  0  0  0  0
 86 87  2  0  0  0  0
 86126  1  0  0  0  0
 87127  1  0  0  0  0
 88 89  2  0  0  0  0
 88128  1  0  0  0  0
 89129  1  0  0  0  0
 90 91  1  0  0  0  0
 90130  1  0  0  0  0
 91131  1  0  0  0  0
M  END
$$$$
