ligands/15-CHEMBL175
 OpenBabel10182222423D

132141  0  0  1  0  0  0  0  0999 V2000
    1.3302    9.9757    2.8131 C   0  0  0  0  0  0  0  0  0  0  0  0
    2.4588    9.3162    2.0143 C   0  0  0  0  0  0  0  0  0  0  0  0
    3.7305   10.1553    2.0846 C   0  0  0  0  0  0  0  0  0  0  0  0
    2.7251    7.8645    2.4884 C   0  0  0  0  0  0  0  0  0  0  0  0
    1.5239    6.9810    2.2569 C   0  0  0  0  0  0  0  0  0  0  0  0
    1.0012    6.9003    0.9725 C   0  0  0  0  0  0  0  0  0  0  0  0
   -0.2200    6.2838    0.7526 C   0  0  0  0  0  0  0  0  0  0  0  0
   -0.9306    5.6430    1.7637 C   0  0  0  0  0  0  0  0  0  0  0  0
   -2.2535    4.9330    1.5056 C   0  0  2  0  0  0  0  0  0  0  0  0
   -2.0738    3.4553    1.1610 C   0  0  0  0  0  0  0  0  0  0  0  0
   -3.2654    5.6578    0.5984 C   0  0  0  0  0  0  0  0  0  0  0  0
   -4.2151    6.2713    1.1022 O   0  0  0  0  0  0  0  0  0  0  0  0
   -3.2208    5.6476   -0.7663 N   0  0  0  0  0  0  0  0  0  0  0  0
   -2.1583    5.2794   -1.6772 C   0  0  0  0  0  0  0  0  0  0  0  0
   -2.6257    4.7840   -3.0344 C   0  0  0  0  0  0  0  0  0  0  0  0
   -3.2448    5.8672   -3.9253 C   0  0  0  0  0  0  0  0  0  0  0  0
   -2.4294    7.1556   -4.1136 C   0  0  0  0  0  0  0  0  0  0  0  0
   -0.9754    6.9845   -4.5633 C   0  0  0  0  0  0  0  0  0  0  0  0
   -0.7755    6.1479   -5.8206 C   0  0  0  0  0  0  0  0  0  0  0  0
   -1.4864    6.6856   -6.9665 N   0  0  0  0  0  0  0  0  0  0  0  0
   -1.0370    6.9285   -8.2399 C   0  0  0  0  0  0  0  0  0  0  0  0
   -1.7434    7.5351   -9.0365 O   0  0  0  0  0  0  0  0  0  0  0  0
    0.3128    6.4809   -8.6468 C   0  0  0  0  0  0  0  0  0  0  0  0
    1.1141    7.3571   -9.3830 C   0  0  0  0  0  0  0  0  0  0  0  0
    2.4080    6.9763   -9.7434 C   0  0  0  0  0  0  0  0  0  0  0  0
    2.9236    5.7357   -9.3339 C   0  0  0  0  0  0  0  0  0  0  0  0
    4.3239    5.3486   -9.6441 C   0  0  0  0  0  0  0  0  0  0  0  0
    4.6045    4.1625  -10.5260 C   0  0  0  0  0  0  0  0  0  0  0  0
    5.7551    3.6319  -10.8565 N   0  0  0  0  0  0  0  0  0  0  0  0
    5.4519    2.5300  -11.6456 C   0  0  0  0  0  0  0  0  0  0  0  0
    6.3026    1.6810  -12.2689 C   0  0  0  0  0  0  0  0  0  0  0  0
    5.7205    0.5403  -13.0520 C   0  0  0  0  0  0  0  0  0  0  0  0
    5.0580    0.7420  -14.2714 C   0  0  0  0  0  0  0  0  0  0  0  0
    4.8417    1.9858  -14.7252 F   0  0  0  0  0  0  0  0  0  0  0  0
    4.5984   -0.3365  -15.0234 C   0  0  0  0  0  0  0  0  0  0  0  0
    3.9424   -0.1193  -16.1717 F   0  0  0  0  0  0  0  0  0  0  0  0
    4.8188   -1.6347  -14.5875 C   0  0  0  0  0  0  0  0  0  0  0  0
    4.3968   -2.6715  -15.3243 F   0  0  0  0  0  0  0  0  0  0  0  0
    5.4769   -1.8578  -13.3879 C   0  0  0  0  0  0  0  0  0  0  0  0
    5.7053   -3.1114  -12.9724 F   0  0  0  0  0  0  0  0  0  0  0  0
    5.9113   -0.7815  -12.6195 C   0  0  0  0  0  0  0  0  0  0  0  0
    6.5438   -1.0298  -11.4626 F   0  0  0  0  0  0  0  0  0  0  0  0
    7.7367    1.7995  -12.2311 C   0  0  0  0  0  0  0  0  0  0  0  0
    8.6798    1.0449  -12.9071 C   0  0  0  0  0  0  0  0  0  0  0  0
    9.9489    1.4726  -12.5082 C   0  0  0  0  0  0  0  0  0  0  0  0
    9.7973    2.5377  -11.6357 C   0  0  0  0  0  0  0  0  0  0  0  0
    8.4343    2.7263  -11.4721 N   0  0  0  0  0  0  0  0  0  0  0  0
   10.8200    3.3231  -10.9954 C   0  0  0  0  0  0  0  0  0  0  0  0
   12.2520    2.9815  -11.2919 C   0  0  0  0  0  0  0  0  0  0  0  0
   13.0912    2.4096  -10.3245 C   0  0  0  0  0  0  0  0  0  0  0  0
   12.6406    2.2002   -9.0782 F   0  0  0  0  0  0  0  0  0  0  0  0
   14.4130    2.0899  -10.6231 C   0  0  0  0  0  0  0  0  0  0  0  0
   15.2121    1.5948   -9.6679 F   0  0  0  0  0  0  0  0  0  0  0  0
   14.9081    2.2962  -11.9021 C   0  0  0  0  0  0  0  0  0  0  0  0
   16.1777    1.9785  -12.1898 F   0  0  0  0  0  0  0  0  0  0  0  0
   14.0894    2.8385  -12.8806 C   0  0  0  0  0  0  0  0  0  0  0  0
   14.5601    3.0222  -14.1219 F   0  0  0  0  0  0  0  0  0  0  0  0
   12.7787    3.1928  -12.5758 C   0  0  0  0  0  0  0  0  0  0  0  0
   12.0158    3.7287  -13.5405 F   0  0  0  0  0  0  0  0  0  0  0  0
   10.5868    4.3658  -10.1615 C   0  0  0  0  0  0  0  0  0  0  0  0
    9.3741    4.9059   -9.7544 N   0  0  0  0  0  0  0  0  0  0  0  0
    9.6723    5.8832   -8.9333 C   0  0  0  0  0  0  0  0  0  0  0  0
    8.7541    6.8393   -8.2171 C   0  0  0  0  0  0  0  0  0  0  0  0
    9.3064    7.8742   -7.3011 C   0  0  0  0  0  0  0  0  0  0  0  0
   10.1105    8.9165   -7.7846 C   0  0  0  0  0  0  0  0  0  0  0  0
   10.3708    9.0074   -9.0973 F   0  0  0  0  0  0  0  0  0  0  0  0
   10.7035    9.8320   -6.9171 C   0  0  0  0  0  0  0  0  0  0  0  0
   11.5259   10.7731   -7.4005 F   0  0  0  0  0  0  0  0  0  0  0  0
   10.4686    9.7511   -5.5532 C   0  0  0  0  0  0  0  0  0  0  0  0
   11.0454   10.6261   -4.7184 F   0  0  0  0  0  0  0  0  0  0  0  0
    9.6460    8.7528   -5.0546 C   0  0  0  0  0  0  0  0  0  0  0  0
    9.4021    8.6806   -3.7390 F   0  0  0  0  0  0  0  0  0  0  0  0
    9.0828    7.8148   -5.9174 C   0  0  0  0  0  0  0  0  0  0  0  0
    8.3157    6.8435   -5.4009 F   0  0  0  0  0  0  0  0  0  0  0  0
    7.4249    6.7397   -8.4123 C   0  0  0  0  0  0  0  0  0  0  0  0
    6.4133    7.5926   -7.7969 C   0  0  0  0  0  0  0  0  0  0  0  0
    5.1956    7.1636   -8.1653 C   0  0  0  0  0  0  0  0  0  0  0  0
    5.3414    6.0285   -9.0788 C   0  0  0  0  0  0  0  0  0  0  0  0
    6.7004    5.8557   -9.1757 N   0  0  0  0  0  0  0  0  0  0  0  0
   11.1143    6.0494   -8.7018 C   0  0  0  0  0  0  0  0  0  0  0  0
   11.6260    5.1358   -9.5130 C   0  0  0  0  0  0  0  0  0  0  0  0
    4.0103    2.4411  -11.7147 C   0  0  0  0  0  0  0  0  0  0  0  0
    3.4397    3.4627  -11.0919 C   0  0  0  0  0  0  0  0  0  0  0  0
    2.0989    4.8557   -8.6163 C   0  0  0  0  0  0  0  0  0  0  0  0
    0.7835    5.2059   -8.3209 C   0  0  0  0  0  0  0  0  0  0  0  0
   -0.3522    5.6453    3.0434 C   0  0  0  0  0  0  0  0  0  0  0  0
    0.8554    6.3201    3.2922 C   0  0  0  0  0  0  0  0  0  0  0  0
    1.1771   10.9731    2.4573 H   0  0  0  0  0  0  0  0  0  0  0  0
    1.5957   10.0035    3.8493 H   0  0  0  0  0  0  0  0  0  0  0  0
    0.4295    9.4112    2.6907 H   0  0  0  0  0  0  0  0  0  0  0  0
    2.1444    9.2645    0.9929 H   0  0  0  0  0  0  0  0  0  0  0  0
    4.0605   10.2183    3.1005 H   0  0  0  0  0  0  0  0  0  0  0  0
    3.5301   11.1385    1.7131 H   0  0  0  0  0  0  0  0  0  0  0  0
    4.4931    9.6978    1.4896 H   0  0  0  0  0  0  0  0  0  0  0  0
    2.9527    7.8759    3.5339 H   0  0  0  0  0  0  0  0  0  0  0  0
    3.5459    7.4715    1.9256 H   0  0  0  0  0  0  0  0  0  0  0  0
    1.5247    7.3012    0.1786 H   0  0  0  0  0  0  0  0  0  0  0  0
   -0.6189    6.3003   -0.1991 H   0  0  0  0  0  0  0  0  0  0  0  0
   -2.7392    4.9780    2.4580 H   0  0  0  0  0  0  0  0  0  0  0  0
   -1.5892    3.3669    0.2111 H   0  0  0  0  0  0  0  0  0  0  0  0
   -3.0315    2.9800    1.1184 H   0  0  0  0  0  0  0  0  0  0  0  0
   -1.4748    2.9842    1.9121 H   0  0  0  0  0  0  0  0  0  0  0  0
   -4.0522    5.9403   -1.2048 H   0  0  0  0  0  0  0  0  0  0  0  0
   -1.5821    4.5025   -1.2197 H   0  0  0  0  0  0  0  0  0  0  0  0
   -1.5957    6.1711   -1.8596 H   0  0  0  0  0  0  0  0  0  0  0  0
   -3.3587    4.0204   -2.8776 H   0  0  0  0  0  0  0  0  0  0  0  0
   -1.7557    4.4285   -3.5459 H   0  0  0  0  0  0  0  0  0  0  0  0
   -4.1869    6.1395   -3.4973 H   0  0  0  0  0  0  0  0  0  0  0  0
   -3.3062    5.4286   -4.8994 H   0  0  0  0  0  0  0  0  0  0  0  0
   -2.4214    7.6749   -3.1781 H   0  0  0  0  0  0  0  0  0  0  0  0
   -2.9121    7.6823   -4.9102 H   0  0  0  0  0  0  0  0  0  0  0  0
   -0.4360    6.5169   -3.7662 H   0  0  0  0  0  0  0  0  0  0  0  0
   -0.6229    7.9660   -4.8026 H   0  0  0  0  0  0  0  0  0  0  0  0
   -1.1293    5.1558   -5.6322 H   0  0  0  0  0  0  0  0  0  0  0  0
    0.2688    6.1563   -6.0534 H   0  0  0  0  0  0  0  0  0  0  0  0
   -2.4316    6.9092   -6.8060 H   0  0  0  0  0  0  0  0  0  0  0  0
    0.7508    8.2826   -9.6595 H   0  0  0  0  0  0  0  0  0  0  0  0
    2.9890    7.6101  -10.3141 H   0  0  0  0  0  0  0  0  0  0  0  0
    8.4802    0.2957  -13.5882 H   0  0  0  0  0  0  0  0  0  0  0  0
   10.8467    1.0643  -12.8120 H   0  0  0  0  0  0  0  0  0  0  0  0
    8.0228    3.4155  -10.9020 H   0  0  0  0  0  0  0  0  0  0  0  0
    6.6033    8.3963   -7.1780 H   0  0  0  0  0  0  0  0  0  0  0  0
    4.2992    7.5694   -7.8541 H   0  0  0  0  0  0  0  0  0  0  0  0
    7.1165    5.1637   -9.7390 H   0  0  0  0  0  0  0  0  0  0  0  0
   11.6009    6.7062   -8.0719 H   0  0  0  0  0  0  0  0  0  0  0  0
   12.6368    4.9916   -9.6633 H   0  0  0  0  0  0  0  0  0  0  0  0
    3.4938    1.6824  -12.1866 H   0  0  0  0  0  0  0  0  0  0  0  0
    2.4389    3.7046  -11.0220 H   0  0  0  0  0  0  0  0  0  0  0  0
    2.4692    3.9439   -8.3057 H   0  0  0  0  0  0  0  0  0  0  0  0
    0.1578    4.5253   -7.8623 H   0  0  0  0  0  0  0  0  0  0  0  0
   -0.8214    5.1435    3.8135 H   0  0  0  0  0  0  0  0  0  0  0  0
    1.2513    6.3279    4.2452 H   0  0  0  0  0  0  0  0  0  0  0  0
  1  2  1  0  0  0  0
  1 88  1  0  0  0  0
  1 89  1  0  0  0  0
  1 90  1  0  0  0  0
  2  3  1  0  0  0  0
  2  4  1  0  0  0  0
  2 91  1  0  0  0  0
  3 92  1  0  0  0  0
  3 93  1  0  0  0  0
  3 94  1  0  0  0  0
  4  5  1  0  0  0  0
  4 95  1  0  0  0  0
  4 96  1  0  0  0  0
  5  6  1  0  0  0  0
  5 87  2  0  0  0  0
  6  7  2  0  0  0  0
  6 97  1  0  0  0  0
  7  8  1  0  0  0  0
  7 98  1  0  0  0  0
  8 86  2  0  0  0  0
  9 11  1  0  0  0  0
  9 10  1  0  0  0  0
  9  8  1  0  0  0  0
  9 99  1  1  0  0  0
 10100  1  0  0  0  0
 10101  1  0  0  0  0
 10102  1  0  0  0  0
 11 12  2  0  0  0  0
 11 13  1  0  0  0  0
 13 14  1  0  0  0  0
 13103  1  0  0  0  0
 14 15  1  0  0  0  0
 14104  1  0  0  0  0
 14105  1  0  0  0  0
 15 16  1  0  0  0  0
 15106  1  0  0  0  0
 15107  1  0  0  0  0
 16 17  1  0  0  0  0
 16108  1  0  0  0  0
 16109  1  0  0  0  0
 17 18  1  0  0  0  0
 17110  1  0  0  0  0
 17111  1  0  0  0  0
 18 19  1  0  0  0  0
 18112  1  0  0  0  0
 18113  1  0  0  0  0
 19 20  1  0  0  0  0
 19114  1  0  0  0  0
 19115  1  0  0  0  0
 20 21  1  0  0  0  0
 20116  1  0  0  0  0
 21 22  2  0  0  0  0
 21 23  1  0  0  0  0
 23 24  1  0  0  0  0
 23 85  2  0  0  0  0
 24 25  2  0  0  0  0
 24117  1  0  0  0  0
 25 26  1  0  0  0  0
 25118  1  0  0  0  0
 26 27  1  0  0  0  0
 26 84  2  0  0  0  0
 27 28  1  0  0  0  0
 27 78  2  0  0  0  0
 28 29  2  0  0  0  0
 28 83  1  0  0  0  0
 29 30  1  0  0  0  0
 30 31  2  0  0  0  0
 30 82  1  0  0  0  0
 31 32  1  0  0  0  0
 31 43  1  0  0  0  0
 32 33  1  0  0  0  0
 32 41  2  0  0  0  0
 33 34  1  0  0  0  0
 33 35  2  0  0  0  0
 35 36  1  0  0  0  0
 35 37  1  0  0  0  0
 37 38  1  0  0  0  0
 37 39  2  0  0  0  0
 39 40  1  0  0  0  0
 39 41  1  0  0  0  0
 41 42  1  0  0  0  0
 43 44  2  0  0  0  0
 43 47  1  0  0  0  0
 44 45  1  0  0  0  0
 44119  1  0  0  0  0
 45 46  2  0  0  0  0
 45120  1  0  0  0  0
 46 47  1  0  0  0  0
 46 48  1  0  0  0  0
 47121  1  0  0  0  0
 48 49  1  0  0  0  0
 48 60  2  0  0  0  0
 49 50  1  0  0  0  0
 49 58  2  0  0  0  0
 50 51  1  0  0  0  0
 50 52  2  0  0  0  0
 52 53  1  0  0  0  0
 52 54  1  0  0  0  0
 54 55  1  0  0  0  0
 54 56  2  0  0  0  0
 56 57  1  0  0  0  0
 56 58  1  0  0  0  0
 58 59  1  0  0  0  0
 60 61  1  0  0  0  0
 60 81  1  0  0  0  0
 61 62  2  0  0  0  0
 62 63  1  0  0  0  0
 62 80  1  0  0  0  0
 63 64  1  0  0  0  0
 63 75  2  0  0  0  0
 64 65  1  0  0  0  0
 64 73  2  0  0  0  0
 65 66  1  0  0  0  0
 65 67  2  0  0  0  0
 67 68  1  0  0  0  0
 67 69  1  0  0  0  0
 69 70  1  0  0  0  0
 69 71  2  0  0  0  0
 71 72  1  0  0  0  0
 71 73  1  0  0  0  0
 73 74  1  0  0  0  0
 75 76  1  0  0  0  0
 75 79  1  0  0  0  0
 76 77  2  0  0  0  0
 76122  1  0  0  0  0
 77 78  1  0  0  0  0
 77123  1  0  0  0  0
 78 79  1  0  0  0  0
 79124  1  0  0  0  0
 80 81  2  0  0  0  0
 80125  1  0  0  0  0
 81126  1  0  0  0  0
 82 83  2  0  0  0  0
 82127  1  0  0  0  0
 83128  1  0  0  0  0
 84 85  1  0  0  0  0
 84129  1  0  0  0  0
 85130  1  0  0  0  0
 86 87  1  0  0  0  0
 86131  1  0  0  0  0
 87132  1  0  0  0  0
M  END
$$$$
