ligands/16-CHEMBL154
 OpenBabel10182222423D

130140  0  0  1  0  0  0  0  0999 V2000
    2.3009  -12.3547   -1.5329 C   0  0  0  0  0  0  0  0  0  0  0  0
    3.0197  -12.3251   -0.3036 O   0  0  0  0  0  0  0  0  0  0  0  0
    2.4985  -11.4672    0.6260 C   0  0  0  0  0  0  0  0  0  0  0  0
    1.1374  -11.3207    0.8832 C   0  0  0  0  0  0  0  0  0  0  0  0
    0.7041  -10.4194    1.8605 C   0  0  0  0  0  0  0  0  0  0  0  0
    1.6271   -9.6728    2.6086 C   0  0  0  0  0  0  0  0  0  0  0  0
    1.2132   -8.7436    3.5809 C   0  0  0  0  0  0  0  0  0  0  0  0
    2.1396   -8.0293    4.3624 C   0  0  0  0  0  0  0  0  0  0  0  0
    1.6255   -7.0131    5.3777 C   0  0  2  0  0  0  0  0  0  0  0  0
    0.8027   -5.8810    4.7462 C   0  0  0  0  0  0  0  0  0  0  0  0
    2.6526   -6.4773    6.3768 C   0  0  0  0  0  0  0  0  0  0  0  0
    2.6169   -6.8185    7.5632 O   0  0  0  0  0  0  0  0  0  0  0  0
    3.6336   -5.6045    6.0151 N   0  0  0  0  0  0  0  0  0  0  0  0
    4.0228   -5.1191    4.7056 C   0  0  0  0  0  0  0  0  0  0  0  0
    4.4110   -3.6470    4.7435 C   0  0  0  0  0  0  0  0  0  0  0  0
    5.6825   -3.3581    5.5506 C   0  0  0  0  0  0  0  0  0  0  0  0
    6.9246   -4.1483    5.1224 C   0  0  0  0  0  0  0  0  0  0  0  0
    7.2862   -4.0394    3.6397 C   0  0  0  0  0  0  0  0  0  0  0  0
    7.4623   -2.6136    3.1325 C   0  0  0  0  0  0  0  0  0  0  0  0
    8.5251   -1.9075    3.8289 N   0  0  0  0  0  0  0  0  0  0  0  0
    9.5691   -1.1871    3.3105 C   0  0  0  0  0  0  0  0  0  0  0  0
   10.4803   -0.8009    4.0390 O   0  0  0  0  0  0  0  0  0  0  0  0
    9.6092   -0.8948    1.8637 C   0  0  0  0  0  0  0  0  0  0  0  0
   10.8089   -1.0756    1.1723 C   0  0  0  0  0  0  0  0  0  0  0  0
   10.8495   -0.8623   -0.2060 C   0  0  0  0  0  0  0  0  0  0  0  0
    9.6824   -0.5112   -0.9044 C   0  0  0  0  0  0  0  0  0  0  0  0
    9.6909   -0.3475   -2.3796 C   0  0  0  0  0  0  0  0  0  0  0  0
    9.3917    0.9920   -2.9921 C   0  0  0  0  0  0  0  0  0  0  0  0
    9.2877    1.3208   -4.2552 N   0  0  0  0  0  0  0  0  0  0  0  0
    8.9594    2.6699   -4.2683 C   0  0  0  0  0  0  0  0  0  0  0  0
    8.8096    3.4924   -5.3340 C   0  0  0  0  0  0  0  0  0  0  0  0
    8.4584    4.9276   -5.0611 C   0  0  0  0  0  0  0  0  0  0  0  0
    9.3684    5.8077   -4.4547 C   0  0  0  0  0  0  0  0  0  0  0  0
   10.5727    5.3676   -4.0598 F   0  0  0  0  0  0  0  0  0  0  0  0
    9.0291    7.1363   -4.2121 C   0  0  0  0  0  0  0  0  0  0  0  0
    9.8949    7.9428   -3.5826 F   0  0  0  0  0  0  0  0  0  0  0  0
    7.7921    7.6222   -4.6070 C   0  0  0  0  0  0  0  0  0  0  0  0
    7.4702    8.9032   -4.3806 F   0  0  0  0  0  0  0  0  0  0  0  0
    6.8861    6.7777   -5.2302 C   0  0  0  0  0  0  0  0  0  0  0  0
    5.6957    7.2492   -5.6263 F   0  0  0  0  0  0  0  0  0  0  0  0
    7.2091    5.4400   -5.4432 C   0  0  0  0  0  0  0  0  0  0  0  0
    6.3028    4.6453   -6.0321 F   0  0  0  0  0  0  0  0  0  0  0  0
    8.9642    3.0761   -6.7035 C   0  0  0  0  0  0  0  0  0  0  0  0
    8.8886    3.8436   -7.8523 C   0  0  0  0  0  0  0  0  0  0  0  0
    9.0420    2.9969   -8.9548 C   0  0  0  0  0  0  0  0  0  0  0  0
    9.2767    1.7119   -8.4925 C   0  0  0  0  0  0  0  0  0  0  0  0
    9.2202    1.7739   -7.1090 N   0  0  0  0  0  0  0  0  0  0  0  0
    9.5330    0.5167   -9.2560 C   0  0  0  0  0  0  0  0  0  0  0  0
    9.5737    0.6385  -10.7527 C   0  0  0  0  0  0  0  0  0  0  0  0
    8.5756    0.0836  -11.5671 C   0  0  0  0  0  0  0  0  0  0  0  0
    7.5741   -0.6231  -11.0214 F   0  0  0  0  0  0  0  0  0  0  0  0
    8.6261    0.2166  -12.9524 C   0  0  0  0  0  0  0  0  0  0  0  0
    7.6903   -0.3674  -13.7137 F   0  0  0  0  0  0  0  0  0  0  0  0
    9.6502    0.9389  -13.5463 C   0  0  0  0  0  0  0  0  0  0  0  0
    9.6917    1.0734  -14.8790 F   0  0  0  0  0  0  0  0  0  0  0  0
   10.6352    1.5154  -12.7593 C   0  0  0  0  0  0  0  0  0  0  0  0
   11.6165    2.2280  -13.3296 F   0  0  0  0  0  0  0  0  0  0  0  0
   10.6069    1.3548  -11.3771 C   0  0  0  0  0  0  0  0  0  0  0  0
   11.5827    1.9122  -10.6444 F   0  0  0  0  0  0  0  0  0  0  0  0
    9.7674   -0.7086   -8.7249 C   0  0  0  0  0  0  0  0  0  0  0  0
    9.8207   -1.0870   -7.3901 N   0  0  0  0  0  0  0  0  0  0  0  0
   10.0609   -2.3758   -7.3894 C   0  0  0  0  0  0  0  0  0  0  0  0
   10.2524   -3.3074   -6.2228 C   0  0  0  0  0  0  0  0  0  0  0  0
   10.5334   -4.7516   -6.4382 C   0  0  0  0  0  0  0  0  0  0  0  0
   11.7415   -5.1728   -7.0116 C   0  0  0  0  0  0  0  0  0  0  0  0
   12.6575   -4.2665   -7.3836 F   0  0  0  0  0  0  0  0  0  0  0  0
   11.9953   -6.5224   -7.2477 C   0  0  0  0  0  0  0  0  0  0  0  0
   13.1361   -6.8924   -7.8450 F   0  0  0  0  0  0  0  0  0  0  0  0
   11.0613   -7.4802   -6.8830 C   0  0  0  0  0  0  0  0  0  0  0  0
   11.3066   -8.7781   -7.1077 F   0  0  0  0  0  0  0  0  0  0  0  0
    9.8687   -7.0897   -6.2934 C   0  0  0  0  0  0  0  0  0  0  0  0
    8.9700   -8.0127   -5.9248 F   0  0  0  0  0  0  0  0  0  0  0  0
    9.6005   -5.7382   -6.0864 C   0  0  0  0  0  0  0  0  0  0  0  0
    8.4313   -5.3898   -5.5295 F   0  0  0  0  0  0  0  0  0  0  0  0
   10.1828   -2.8135   -4.9720 C   0  0  0  0  0  0  0  0  0  0  0  0
   10.3513   -3.5867   -3.7455 C   0  0  0  0  0  0  0  0  0  0  0  0
   10.1664   -2.7786   -2.6898 C   0  0  0  0  0  0  0  0  0  0  0  0
    9.9087   -1.4188   -3.1662 C   0  0  0  0  0  0  0  0  0  0  0  0
    9.9382   -1.5350   -4.5335 N   0  0  0  0  0  0  0  0  0  0  0  0
   10.1564   -2.9679   -8.7308 C   0  0  0  0  0  0  0  0  0  0  0  0
   10.0167   -1.9022   -9.5061 C   0  0  0  0  0  0  0  0  0  0  0  0
    8.8232    3.0858   -2.8895 C   0  0  0  0  0  0  0  0  0  0  0  0
    9.1505    2.1055   -2.0611 C   0  0  0  0  0  0  0  0  0  0  0  0
    8.4901   -0.3109   -0.1924 C   0  0  0  0  0  0  0  0  0  0  0  0
    8.4677   -0.4479    1.1917 C   0  0  0  0  0  0  0  0  0  0  0  0
    3.4989   -8.3114    4.1772 C   0  0  0  0  0  0  0  0  0  0  0  0
    3.9295   -9.1882    3.1798 C   0  0  0  0  0  0  0  0  0  0  0  0
    3.0055   -9.8703    2.3848 C   0  0  0  0  0  0  0  0  0  0  0  0
    3.4275  -10.7613    1.3881 C   0  0  0  0  0  0  0  0  0  0  0  0
    2.7687  -13.0454   -2.2030 H   0  0  0  0  0  0  0  0  0  0  0  0
    2.3012  -11.3780   -1.9698 H   0  0  0  0  0  0  0  0  0  0  0  0
    1.2929  -12.6630   -1.3493 H   0  0  0  0  0  0  0  0  0  0  0  0
    0.4490  -11.8772    0.3527 H   0  0  0  0  0  0  0  0  0  0  0  0
   -0.3065  -10.3019    2.0336 H   0  0  0  0  0  0  0  0  0  0  0  0
    0.2041   -8.5820    3.7244 H   0  0  0  0  0  0  0  0  0  0  0  0
    0.9619   -7.6051    5.9727 H   0  0  0  0  0  0  0  0  0  0  0  0
    1.4411   -5.2697    4.1431 H   0  0  0  0  0  0  0  0  0  0  0  0
    0.3641   -5.2849    5.5190 H   0  0  0  0  0  0  0  0  0  0  0  0
    0.0295   -6.2994    4.1363 H   0  0  0  0  0  0  0  0  0  0  0  0
    4.1636   -5.2455    6.7631 H   0  0  0  0  0  0  0  0  0  0  0  0
    3.2015   -5.2440    4.0312 H   0  0  0  0  0  0  0  0  0  0  0  0
    4.8739   -5.6804    4.3810 H   0  0  0  0  0  0  0  0  0  0  0  0
    3.6034   -3.0971    5.1797 H   0  0  0  0  0  0  0  0  0  0  0  0
    4.6115   -3.3535    3.7343 H   0  0  0  0  0  0  0  0  0  0  0  0
    5.4821   -3.5877    6.5763 H   0  0  0  0  0  0  0  0  0  0  0  0
    5.9139   -2.3276    5.3789 H   0  0  0  0  0  0  0  0  0  0  0  0
    6.7539   -5.1805    5.3466 H   0  0  0  0  0  0  0  0  0  0  0  0
    7.7465   -3.7245    5.6606 H   0  0  0  0  0  0  0  0  0  0  0  0
    6.5065   -4.5019    3.0713 H   0  0  0  0  0  0  0  0  0  0  0  0
    8.2340   -4.5220    3.5226 H   0  0  0  0  0  0  0  0  0  0  0  0
    6.5448   -2.0818    3.2753 H   0  0  0  0  0  0  0  0  0  0  0  0
    7.7272   -2.6649    2.0971 H   0  0  0  0  0  0  0  0  0  0  0  0
    8.4898   -1.9533    4.8117 H   0  0  0  0  0  0  0  0  0  0  0  0
   11.6606   -1.3653    1.6779 H   0  0  0  0  0  0  0  0  0  0  0  0
   11.7416   -0.9630   -0.7150 H   0  0  0  0  0  0  0  0  0  0  0  0
    8.7440    4.8647   -7.8892 H   0  0  0  0  0  0  0  0  0  0  0  0
    8.9893    3.2812   -9.9455 H   0  0  0  0  0  0  0  0  0  0  0  0
    9.3435    1.0074   -6.5035 H   0  0  0  0  0  0  0  0  0  0  0  0
   10.5764   -4.5927   -3.6977 H   0  0  0  0  0  0  0  0  0  0  0  0
   10.2005   -3.0696   -1.7003 H   0  0  0  0  0  0  0  0  0  0  0  0
    9.7974   -0.7742   -5.1422 H   0  0  0  0  0  0  0  0  0  0  0  0
   10.2957   -3.9547   -8.9988 H   0  0  0  0  0  0  0  0  0  0  0  0
   10.0778   -1.9206  -10.5361 H   0  0  0  0  0  0  0  0  0  0  0  0
    8.5119    4.0232   -2.5906 H   0  0  0  0  0  0  0  0  0  0  0  0
    9.2186    2.1192   -1.0314 H   0  0  0  0  0  0  0  0  0  0  0  0
    7.6258   -0.0608   -0.6979 H   0  0  0  0  0  0  0  0  0  0  0  0
    7.6113   -0.2204    1.7207 H   0  0  0  0  0  0  0  0  0  0  0  0
    4.1965   -7.8619    4.7906 H   0  0  0  0  0  0  0  0  0  0  0  0
    4.9399   -9.3338    3.0285 H   0  0  0  0  0  0  0  0  0  0  0  0
    4.4363  -10.8958    1.2170 H   0  0  0  0  0  0  0  0  0  0  0  0
  1  2  1  0  0  0  0
  1 90  1  0  0  0  0
  1 91  1  0  0  0  0
  1 92  1  0  0  0  0
  2  3  1  0  0  0  0
  3  4  1  0  0  0  0
  3 89  2  0  0  0  0
  4  5  2  0  0  0  0
  4 93  1  0  0  0  0
  5  6  1  0  0  0  0
  5 94  1  0  0  0  0
  6  7  1  0  0  0  0
  6 88  2  0  0  0  0
  7  8  2  0  0  0  0
  7 95  1  0  0  0  0
  8 86  1  0  0  0  0
  9 11  1  0  0  0  0
  9 10  1  0  0  0  0
  9  8  1  0  0  0  0
  9 96  1  1  0  0  0
 10 97  1  0  0  0  0
 10 98  1  0  0  0  0
 10 99  1  0  0  0  0
 11 12  2  0  0  0  0
 11 13  1  0  0  0  0
 13 14  1  0  0  0  0
 13100  1  0  0  0  0
 14 15  1  0  0  0  0
 14101  1  0  0  0  0
 14102  1  0  0  0  0
 15 16  1  0  0  0  0
 15103  1  0  0  0  0
 15104  1  0  0  0  0
 16 17  1  0  0  0  0
 16105  1  0  0  0  0
 16106  1  0  0  0  0
 17 18  1  0  0  0  0
 17107  1  0  0  0  0
 17108  1  0  0  0  0
 18 19  1  0  0  0  0
 18109  1  0  0  0  0
 18110  1  0  0  0  0
 19 20  1  0  0  0  0
 19111  1  0  0  0  0
 19112  1  0  0  0  0
 20 21  1  0  0  0  0
 20113  1  0  0  0  0
 21 22  2  0  0  0  0
 21 23  1  0  0  0  0
 23 24  1  0  0  0  0
 23 85  2  0  0  0  0
 24 25  2  0  0  0  0
 24114  1  0  0  0  0
 25 26  1  0  0  0  0
 25115  1  0  0  0  0
 26 27  1  0  0  0  0
 26 84  2  0  0  0  0
 27 28  1  0  0  0  0
 27 78  2  0  0  0  0
 28 29  2  0  0  0  0
 28 83  1  0  0  0  0
 29 30  1  0  0  0  0
 30 31  2  0  0  0  0
 30 82  1  0  0  0  0
 31 32  1  0  0  0  0
 31 43  1  0  0  0  0
 32 33  1  0  0  0  0
 32 41  2  0  0  0  0
 33 34  1  0  0  0  0
 33 35  2  0  0  0  0
 35 36  1  0  0  0  0
 35 37  1  0  0  0  0
 37 38  1  0  0  0  0
 37 39  2  0  0  0  0
 39 40  1  0  0  0  0
 39 41  1  0  0  0  0
 41 42  1  0  0  0  0
 43 44  2  0  0  0  0
 43 47  1  0  0  0  0
 44 45  1  0  0  0  0
 44116  1  0  0  0  0
 45 46  2  0  0  0  0
 45117  1  0  0  0  0
 46 47  1  0  0  0  0
 46 48  1  0  0  0  0
 47118  1  0  0  0  0
 48 49  1  0  0  0  0
 48 60  2  0  0  0  0
 49 50  1  0  0  0  0
 49 58  2  0  0  0  0
 50 51  1  0  0  0  0
 50 52  2  0  0  0  0
 52 53  1  0  0  0  0
 52 54  1  0  0  0  0
 54 55  1  0  0  0  0
 54 56  2  0  0  0  0
 56 57  1  0  0  0  0
 56 58  1  0  0  0  0
 58 59  1  0  0  0  0
 60 61  1  0  0  0  0
 60 81  1  0  0  0  0
 61 62  2  0  0  0  0
 62 63  1  0  0  0  0
 62 80  1  0  0  0  0
 63 64  1  0  0  0  0
 63 75  2  0  0  0  0
 64 65  1  0  0  0  0
 64 73  2  0  0  0  0
 65 66  1  0  0  0  0
 65 67  2  0  0  0  0
 67 68  1  0  0  0  0
 67 69  1  0  0  0  0
 69 70  1  0  0  0  0
 69 71  2  0  0  0  0
 71 72  1  0  0  0  0
 71 73  1  0  0  0  0
 73 74  1  0  0  0  0
 75 76  1  0  0  0  0
 75 79  1  0  0  0  0
 76 77  2  0  0  0  0
 76119  1  0  0  0  0
 77 78  1  0  0  0  0
 77120  1  0  0  0  0
 78 79  1  0  0  0  0
 79121  1  0  0  0  0
 80 81  2  0  0  0  0
 80122  1  0  0  0  0
 81123  1  0  0  0  0
 82 83  2  0  0  0  0
 82124  1  0  0  0  0
 83125  1  0  0  0  0
 84 85  1  0  0  0  0
 84126  1  0  0  0  0
 85127  1  0  0  0  0
 86 87  2  0  0  0  0
 86128  1  0  0  0  0
 87 88  1  0  0  0  0
 87129  1  0  0  0  0
 88 89  1  0  0  0  0
 89130  1  0  0  0  0
M  END
$$$$
