ligands/21-CHEMBL19299
 OpenBabel10182222433D

135145  0  0  0  0  0  0  0  0999 V2000
    1.0367    0.1888   -0.0324 C   0  0  0  0  0  0  0  0  0  0  0  0
    0.4837   -1.0845    0.6214 C   0  0  1  0  0  0  0  0  0  0  0  0
    1.0193   -1.2713    2.0555 C   0  0  0  0  0  0  0  0  0  0  0  0
    0.3127   -1.1725    3.0613 O   0  0  0  0  0  0  0  0  0  0  0  0
    2.3240   -1.6116    2.2622 N   0  0  0  0  0  0  0  0  0  0  0  0
    3.4458   -1.5904    1.3494 C   0  0  0  0  0  0  0  0  0  0  0  0
    4.2678   -0.3145    1.5538 C   0  0  0  0  0  0  0  0  0  0  0  0
    5.0022   -0.2581    2.9011 C   0  0  0  0  0  0  0  0  0  0  0  0
    5.9858   -1.4060    3.1500 C   0  0  0  0  0  0  0  0  0  0  0  0
    7.0392   -1.5978    2.0571 C   0  0  0  0  0  0  0  0  0  0  0  0
    7.9336   -0.3850    1.8240 C   0  0  0  0  0  0  0  0  0  0  0  0
    8.7654   -0.0906    2.9804 N   0  0  0  0  0  0  0  0  0  0  0  0
   10.1253    0.0597    3.0520 C   0  0  0  0  0  0  0  0  0  0  0  0
   10.6879    0.1079    4.1464 O   0  0  0  0  0  0  0  0  0  0  0  0
   10.9245    0.1450    1.8133 C   0  0  0  0  0  0  0  0  0  0  0  0
   12.1069   -0.5931    1.7179 C   0  0  0  0  0  0  0  0  0  0  0  0
   12.8487   -0.5614    0.5357 C   0  0  0  0  0  0  0  0  0  0  0  0
   12.3925    0.1773   -0.5684 C   0  0  0  0  0  0  0  0  0  0  0  0
   13.1336    0.1734   -1.8546 C   0  0  0  0  0  0  0  0  0  0  0  0
   13.7521    1.4409   -2.3739 C   0  0  0  0  0  0  0  0  0  0  0  0
   14.3752    1.6559   -3.5053 N   0  0  0  0  0  0  0  0  0  0  0  0
   14.7045    3.0048   -3.5046 C   0  0  0  0  0  0  0  0  0  0  0  0
   15.4110    3.7024   -4.4261 C   0  0  0  0  0  0  0  0  0  0  0  0
   15.6266    5.1668   -4.1732 C   0  0  0  0  0  0  0  0  0  0  0  0
   16.4672    5.6208   -3.1451 C   0  0  0  0  0  0  0  0  0  0  0  0
   17.0686    4.7432   -2.3277 F   0  0  0  0  0  0  0  0  0  0  0  0
   16.6616    6.9821   -2.9258 C   0  0  0  0  0  0  0  0  0  0  0  0
   17.4282    7.3917   -1.9056 F   0  0  0  0  0  0  0  0  0  0  0  0
   16.0521    7.9142   -3.7517 C   0  0  0  0  0  0  0  0  0  0  0  0
   16.2459    9.2239   -3.5439 F   0  0  0  0  0  0  0  0  0  0  0  0
   15.2358    7.4884   -4.7885 C   0  0  0  0  0  0  0  0  0  0  0  0
   14.6566    8.3877   -5.5961 F   0  0  0  0  0  0  0  0  0  0  0  0
   15.0140    6.1286   -4.9908 C   0  0  0  0  0  0  0  0  0  0  0  0
   14.2056    5.7499   -5.9921 F   0  0  0  0  0  0  0  0  0  0  0  0
   15.9655    3.1291   -5.6245 C   0  0  0  0  0  0  0  0  0  0  0  0
   16.7502    3.7368   -6.5889 C   0  0  0  0  0  0  0  0  0  0  0  0
   17.0097    2.8008   -7.5955 C   0  0  0  0  0  0  0  0  0  0  0  0
   16.4319    1.5948   -7.2326 C   0  0  0  0  0  0  0  0  0  0  0  0
   15.7900    1.8120   -6.0237 N   0  0  0  0  0  0  0  0  0  0  0  0
   16.4617    0.3379   -7.9363 C   0  0  0  0  0  0  0  0  0  0  0  0
   17.2179    0.2805   -9.2319 C   0  0  0  0  0  0  0  0  0  0  0  0
   16.5597    0.1662  -10.4650 C   0  0  0  0  0  0  0  0  0  0  0  0
   15.2238    0.0507  -10.5090 F   0  0  0  0  0  0  0  0  0  0  0  0
   17.2771    0.1297  -11.6578 C   0  0  0  0  0  0  0  0  0  0  0  0
   16.6308   -0.0285  -12.8212 F   0  0  0  0  0  0  0  0  0  0  0  0
   18.6595    0.2424  -11.6434 C   0  0  0  0  0  0  0  0  0  0  0  0
   19.3473    0.2150  -12.7931 F   0  0  0  0  0  0  0  0  0  0  0  0
   19.3293    0.3758  -10.4367 C   0  0  0  0  0  0  0  0  0  0  0  0
   20.6637    0.4988  -10.4215 F   0  0  0  0  0  0  0  0  0  0  0  0
   18.6177    0.3815   -9.2406 C   0  0  0  0  0  0  0  0  0  0  0  0
   19.2946    0.4991   -8.0884 F   0  0  0  0  0  0  0  0  0  0  0  0
   15.8770   -0.8072   -7.5068 C   0  0  0  0  0  0  0  0  0  0  0  0
   15.1529   -1.0352   -6.3445 N   0  0  0  0  0  0  0  0  0  0  0  0
   14.7860   -2.2927   -6.3889 C   0  0  0  0  0  0  0  0  0  0  0  0
   14.0056   -3.0911   -5.3800 C   0  0  0  0  0  0  0  0  0  0  0  0
   13.6940   -4.5245   -5.6186 C   0  0  0  0  0  0  0  0  0  0  0  0
   14.7086   -5.4919   -5.6130 C   0  0  0  0  0  0  0  0  0  0  0  0
   15.9820   -5.1246   -5.4071 F   0  0  0  0  0  0  0  0  0  0  0  0
   14.4258   -6.8335   -5.8602 C   0  0  0  0  0  0  0  0  0  0  0  0
   15.4209   -7.7301   -5.8947 F   0  0  0  0  0  0  0  0  0  0  0  0
   13.1191   -7.2388   -6.0865 C   0  0  0  0  0  0  0  0  0  0  0  0
   12.8468   -8.5298   -6.3199 F   0  0  0  0  0  0  0  0  0  0  0  0
   12.0961   -6.3027   -6.0777 C   0  0  0  0  0  0  0  0  0  0  0  0
   10.8302   -6.6923   -6.2808 F   0  0  0  0  0  0  0  0  0  0  0  0
   12.3818   -4.9566   -5.8595 C   0  0  0  0  0  0  0  0  0  0  0  0
   11.3740   -4.0719   -5.8694 F   0  0  0  0  0  0  0  0  0  0  0  0
   13.6059   -2.4973   -4.2394 C   0  0  0  0  0  0  0  0  0  0  0  0
   12.8527   -3.1418   -3.1678 C   0  0  0  0  0  0  0  0  0  0  0  0
   12.5914   -2.2372   -2.2108 C   0  0  0  0  0  0  0  0  0  0  0  0
   13.1924   -0.9564   -2.5854 C   0  0  0  0  0  0  0  0  0  0  0  0
   13.7756   -1.2063   -3.8026 N   0  0  0  0  0  0  0  0  0  0  0  0
   15.2139   -2.9995   -7.6042 C   0  0  0  0  0  0  0  0  0  0  0  0
   15.9102   -2.0613   -8.2302 C   0  0  0  0  0  0  0  0  0  0  0  0
   14.1674    3.5710   -2.2863 C   0  0  0  0  0  0  0  0  0  0  0  0
   13.6303    2.6329   -1.5204 C   0  0  0  0  0  0  0  0  0  0  0  0
   11.2160    0.9330   -0.4498 C   0  0  0  0  0  0  0  0  0  0  0  0
   10.5139    0.9570    0.7518 C   0  0  0  0  0  0  0  0  0  0  0  0
   -1.0449   -1.1356    0.6060 C   0  0  0  0  0  0  0  0  0  0  0  0
   -1.8307    0.0185    0.4885 C   0  0  0  0  0  0  0  0  0  0  0  0
   -3.2209   -0.0527    0.5456 C   0  0  0  0  0  0  0  0  0  0  0  0
   -3.8652   -1.2710    0.7806 C   0  0  0  0  0  0  0  0  0  0  0  0
   -5.3625   -1.3137    0.9648 C   0  0  0  0  0  0  0  0  0  0  0  0
   -5.8982   -0.7695    2.2971 C   0  0  1  0  0  0  0  0  0  0  0  0
   -5.3544   -1.4294    3.5681 C   0  0  0  0  0  0  0  0  0  0  0  0
   -4.2310   -0.5311    4.0721 C   0  0  0  0  0  0  0  0  0  0  0  0
   -4.6535    0.8879    3.7202 C   0  0  0  0  0  0  0  0  0  0  0  0
   -5.5516    0.6843    2.5279 C   0  0  0  0  0  0  0  0  0  0  0  0
   -5.9687    1.6026    1.8304 O   0  0  0  0  0  0  0  0  0  0  0  0
   -3.0917   -2.4332    0.8740 C   0  0  0  0  0  0  0  0  0  0  0  0
   -1.6978   -2.3671    0.7795 C   0  0  0  0  0  0  0  0  0  0  0  0
    2.1059    0.1735    0.0052 H   0  0  0  0  0  0  0  0  0  0  0  0
    0.6735    1.0466    0.4940 H   0  0  0  0  0  0  0  0  0  0  0  0
    0.7163    0.2341   -1.0523 H   0  0  0  0  0  0  0  0  0  0  0  0
    0.8360   -1.9001    0.0251 H   0  0  0  0  0  0  0  0  0  0  0  0
    2.5346   -1.9191    3.1734 H   0  0  0  0  0  0  0  0  0  0  0  0
    3.0836   -1.6204    0.3430 H   0  0  0  0  0  0  0  0  0  0  0  0
    4.0670   -2.4408    1.5387 H   0  0  0  0  0  0  0  0  0  0  0  0
    3.6073    0.5252    1.4945 H   0  0  0  0  0  0  0  0  0  0  0  0
    5.0172   -0.3016    0.7902 H   0  0  0  0  0  0  0  0  0  0  0  0
    4.2688   -0.2745    3.6800 H   0  0  0  0  0  0  0  0  0  0  0  0
    5.5860    0.6385    2.8866 H   0  0  0  0  0  0  0  0  0  0  0  0
    5.4243   -2.3130    3.2337 H   0  0  0  0  0  0  0  0  0  0  0  0
    6.5204   -1.1559    4.0425 H   0  0  0  0  0  0  0  0  0  0  0  0
    6.5339   -1.8219    1.1410 H   0  0  0  0  0  0  0  0  0  0  0  0
    7.6789   -2.3902    2.3855 H   0  0  0  0  0  0  0  0  0  0  0  0
    7.3167    0.4644    1.6171 H   0  0  0  0  0  0  0  0  0  0  0  0
    8.5796   -0.6045    0.9997 H   0  0  0  0  0  0  0  0  0  0  0  0
    8.2830    0.0157    3.8320 H   0  0  0  0  0  0  0  0  0  0  0  0
   12.4305   -1.1592    2.5178 H   0  0  0  0  0  0  0  0  0  0  0  0
   13.7367   -1.0834    0.4727 H   0  0  0  0  0  0  0  0  0  0  0  0
   17.0861    4.7124   -6.5689 H   0  0  0  0  0  0  0  0  0  0  0  0
   17.5415    2.9784   -8.4619 H   0  0  0  0  0  0  0  0  0  0  0  0
   15.2843    1.1322   -5.5223 H   0  0  0  0  0  0  0  0  0  0  0  0
   12.5670   -4.1333   -3.1489 H   0  0  0  0  0  0  0  0  0  0  0  0
   12.0529   -2.4163   -1.3489 H   0  0  0  0  0  0  0  0  0  0  0  0
   14.2688   -0.5248   -4.3140 H   0  0  0  0  0  0  0  0  0  0  0  0
   15.0225   -3.9713   -7.8942 H   0  0  0  0  0  0  0  0  0  0  0  0
   16.4123   -2.2062   -9.1201 H   0  0  0  0  0  0  0  0  0  0  0  0
   14.1986    4.5740   -2.0455 H   0  0  0  0  0  0  0  0  0  0  0  0
   13.2308    2.7165   -0.5725 H   0  0  0  0  0  0  0  0  0  0  0  0
   10.8696    1.4737   -1.2577 H   0  0  0  0  0  0  0  0  0  0  0  0
    9.6925    1.5725    0.8589 H   0  0  0  0  0  0  0  0  0  0  0  0
   -1.3732    0.9343    0.3578 H   0  0  0  0  0  0  0  0  0  0  0  0
   -3.7814    0.8036    0.4129 H   0  0  0  0  0  0  0  0  0  0  0  0
   -5.6726   -2.3343    0.8809 H   0  0  0  0  0  0  0  0  0  0  0  0
   -5.7620   -0.6681    0.2108 H   0  0  0  0  0  0  0  0  0  0  0  0
   -6.9420   -0.9666    2.1687 H   0  0  0  0  0  0  0  0  0  0  0  0
   -4.9763   -2.4054    3.3457 H   0  0  0  0  0  0  0  0  0  0  0  0
   -6.1215   -1.5421    4.3055 H   0  0  0  0  0  0  0  0  0  0  0  0
   -3.3095   -0.7776    3.5874 H   0  0  0  0  0  0  0  0  0  0  0  0
   -4.0720   -0.6478    5.1238 H   0  0  0  0  0  0  0  0  0  0  0  0
   -3.8064    1.4902    3.4660 H   0  0  0  0  0  0  0  0  0  0  0  0
   -5.1329    1.3993    4.5286 H   0  0  0  0  0  0  0  0  0  0  0  0
   -3.5530   -3.3457    1.0136 H   0  0  0  0  0  0  0  0  0  0  0  0
   -1.1417   -3.2345    0.8380 H   0  0  0  0  0  0  0  0  0  0  0  0
  1  2  1  0  0  0  0
  1 91  1  0  0  0  0
  1 92  1  0  0  0  0
  1 93  1  0  0  0  0
  2  3  1  0  0  0  0
  2 78  1  0  0  0  0
  2 94  1  6  0  0  0
  3  4  2  0  0  0  0
  3  5  1  0  0  0  0
  5  6  1  0  0  0  0
  5 95  1  0  0  0  0
  6  7  1  0  0  0  0
  6 96  1  0  0  0  0
  6 97  1  0  0  0  0
  7  8  1  0  0  0  0
  7 98  1  0  0  0  0
  7 99  1  0  0  0  0
  8  9  1  0  0  0  0
  8100  1  0  0  0  0
  8101  1  0  0  0  0
  9 10  1  0  0  0  0
  9102  1  0  0  0  0
  9103  1  0  0  0  0
 10 11  1  0  0  0  0
 10104  1  0  0  0  0
 10105  1  0  0  0  0
 11 12  1  0  0  0  0
 11106  1  0  0  0  0
 11107  1  0  0  0  0
 12 13  1  0  0  0  0
 12108  1  0  0  0  0
 13 14  2  0  0  0  0
 13 15  1  0  0  0  0
 15 16  1  0  0  0  0
 15 77  2  0  0  0  0
 16 17  2  0  0  0  0
 16109  1  0  0  0  0
 17 18  1  0  0  0  0
 17110  1  0  0  0  0
 18 19  1  0  0  0  0
 18 76  2  0  0  0  0
 19 20  1  0  0  0  0
 19 70  2  0  0  0  0
 20 21  2  0  0  0  0
 20 75  1  0  0  0  0
 21 22  1  0  0  0  0
 22 23  2  0  0  0  0
 22 74  1  0  0  0  0
 23 24  1  0  0  0  0
 23 35  1  0  0  0  0
 24 25  1  0  0  0  0
 24 33  2  0  0  0  0
 25 26  1  0  0  0  0
 25 27  2  0  0  0  0
 27 28  1  0  0  0  0
 27 29  1  0  0  0  0
 29 30  1  0  0  0  0
 29 31  2  0  0  0  0
 31 32  1  0  0  0  0
 31 33  1  0  0  0  0
 33 34  1  0  0  0  0
 35 36  2  0  0  0  0
 35 39  1  0  0  0  0
 36 37  1  0  0  0  0
 36111  1  0  0  0  0
 37 38  2  0  0  0  0
 37112  1  0  0  0  0
 38 39  1  0  0  0  0
 38 40  1  0  0  0  0
 39113  1  0  0  0  0
 40 41  1  0  0  0  0
 40 52  2  0  0  0  0
 41 42  1  0  0  0  0
 41 50  2  0  0  0  0
 42 43  1  0  0  0  0
 42 44  2  0  0  0  0
 44 45  1  0  0  0  0
 44 46  1  0  0  0  0
 46 47  1  0  0  0  0
 46 48  2  0  0  0  0
 48 49  1  0  0  0  0
 48 50  1  0  0  0  0
 50 51  1  0  0  0  0
 52 53  1  0  0  0  0
 52 73  1  0  0  0  0
 53 54  2  0  0  0  0
 54 55  1  0  0  0  0
 54 72  1  0  0  0  0
 55 56  1  0  0  0  0
 55 67  2  0  0  0  0
 56 57  1  0  0  0  0
 56 65  2  0  0  0  0
 57 58  1  0  0  0  0
 57 59  2  0  0  0  0
 59 60  1  0  0  0  0
 59 61  1  0  0  0  0
 61 62  1  0  0  0  0
 61 63  2  0  0  0  0
 63 64  1  0  0  0  0
 63 65  1  0  0  0  0
 65 66  1  0  0  0  0
 67 68  1  0  0  0  0
 67 71  1  0  0  0  0
 68 69  2  0  0  0  0
 68114  1  0  0  0  0
 69 70  1  0  0  0  0
 69115  1  0  0  0  0
 70 71  1  0  0  0  0
 71116  1  0  0  0  0
 72 73  2  0  0  0  0
 72117  1  0  0  0  0
 73118  1  0  0  0  0
 74 75  2  0  0  0  0
 74119  1  0  0  0  0
 75120  1  0  0  0  0
 76 77  1  0  0  0  0
 76121  1  0  0  0  0
 77122  1  0  0  0  0
 78 79  1  0  0  0  0
 78 90  2  0  0  0  0
 79 80  2  0  0  0  0
 79123  1  0  0  0  0
 80 81  1  0  0  0  0
 80124  1  0  0  0  0
 81 82  1  0  0  0  0
 81 89  2  0  0  0  0
 82 83  1  0  0  0  0
 82125  1  0  0  0  0
 82126  1  0  0  0  0
 83 84  1  0  0  0  0
 83 87  1  0  0  0  0
 83127  1  6  0  0  0
 84 85  1  0  0  0  0
 84128  1  0  0  0  0
 84129  1  0  0  0  0
 85 86  1  0  0  0  0
 85130  1  0  0  0  0
 85131  1  0  0  0  0
 86 87  1  0  0  0  0
 86132  1  0  0  0  0
 86133  1  0  0  0  0
 87 88  2  0  0  0  0
 89 90  1  0  0  0  0
 89134  1  0  0  0  0
 90135  1  0  0  0  0
M  END
$$$$
