ligands/22-CHEMBL424
 OpenBabel10182222433D

115124  0  0  0  0  0  0  0  0999 V2000
    1.0290    0.0481    0.1115 O   0  0  0  0  0  0  0  0  0  0  0  0
    2.2496   -0.0002   -0.0059 C   0  0  0  0  0  0  0  0  0  0  0  0
    2.8901    0.7532   -0.9622 N   0  0  0  0  0  0  0  0  0  0  0  0
    4.2944    0.7463   -1.3368 C   0  0  0  0  0  0  0  0  0  0  0  0
    4.5194    0.6927   -2.8406 C   0  0  0  0  0  0  0  0  0  0  0  0
    4.0700    1.9299   -3.6154 C   0  0  0  0  0  0  0  0  0  0  0  0
    4.6368    3.2668   -3.1290 C   0  0  0  0  0  0  0  0  0  0  0  0
    6.1597    3.3400   -2.9711 C   0  0  0  0  0  0  0  0  0  0  0  0
    6.9729    2.9415   -4.2003 C   0  0  0  0  0  0  0  0  0  0  0  0
    6.6984    3.7904   -5.3415 N   0  0  0  0  0  0  0  0  0  0  0  0
    7.5902    4.3754   -6.2044 C   0  0  0  0  0  0  0  0  0  0  0  0
    7.1883    5.1217   -7.0938 O   0  0  0  0  0  0  0  0  0  0  0  0
    9.0424    4.1802   -6.0203 C   0  0  0  0  0  0  0  0  0  0  0  0
    9.8177    5.3262   -5.8023 C   0  0  0  0  0  0  0  0  0  0  0  0
   11.1959    5.2124   -5.6208 C   0  0  0  0  0  0  0  0  0  0  0  0
   11.8027    3.9571   -5.6696 C   0  0  0  0  0  0  0  0  0  0  0  0
   11.0377    2.8137   -5.9135 C   0  0  0  0  0  0  0  0  0  0  0  0
    9.6585    2.9263   -6.0982 C   0  0  0  0  0  0  0  0  0  0  0  0
    8.9213    1.8035   -6.3539 O   0  0  0  0  0  0  0  0  0  0  0  0
    3.0376   -0.9002    0.8667 C   0  0  0  0  0  0  0  0  0  0  0  0
    4.2286   -0.4630    1.4482 C   0  0  0  0  0  0  0  0  0  0  0  0
    5.0366   -1.3664    2.1270 C   0  0  0  0  0  0  0  0  0  0  0  0
    4.6024   -2.6833    2.3586 C   0  0  0  0  0  0  0  0  0  0  0  0
    5.4540   -3.5760    3.1865 C   0  0  0  0  0  0  0  0  0  0  0  0
    6.1004   -4.8055    2.6139 C   0  0  0  0  0  0  0  0  0  0  0  0
    6.9398   -5.6347    3.1849 N   0  0  0  0  0  0  0  0  0  0  0  0
    7.2213   -6.6089    2.2364 C   0  0  0  0  0  0  0  0  0  0  0  0
    8.0622   -7.6671    2.3379 C   0  0  0  0  0  0  0  0  0  0  0  0
    8.1889   -8.5769    1.1499 C   0  0  0  0  0  0  0  0  0  0  0  0
    8.8860   -8.1839   -0.0021 C   0  0  0  0  0  0  0  0  0  0  0  0
    9.3937   -6.9456   -0.0944 F   0  0  0  0  0  0  0  0  0  0  0  0
    9.0469   -9.0571   -1.0756 C   0  0  0  0  0  0  0  0  0  0  0  0
    9.6920   -8.6498   -2.1776 F   0  0  0  0  0  0  0  0  0  0  0  0
    8.5379  -10.3455   -1.0084 C   0  0  0  0  0  0  0  0  0  0  0  0
    8.7061  -11.1886   -2.0367 F   0  0  0  0  0  0  0  0  0  0  0  0
    7.8525  -10.7583    0.1240 C   0  0  0  0  0  0  0  0  0  0  0  0
    7.3710  -12.0071    0.1957 F   0  0  0  0  0  0  0  0  0  0  0  0
    7.6693   -9.8800    1.1894 C   0  0  0  0  0  0  0  0  0  0  0  0
    7.0004  -10.3085    2.2703 F   0  0  0  0  0  0  0  0  0  0  0  0
    8.8418   -7.9792    3.5100 C   0  0  0  0  0  0  0  0  0  0  0  0
    9.7275   -9.0256    3.7065 C   0  0  0  0  0  0  0  0  0  0  0  0
   10.2257   -8.9419    5.0117 C   0  0  0  0  0  0  0  0  0  0  0  0
    9.6840   -7.8191    5.6150 C   0  0  0  0  0  0  0  0  0  0  0  0
    8.8298   -7.2434    4.6864 N   0  0  0  0  0  0  0  0  0  0  0  0
    9.9295   -7.3062    6.9378 C   0  0  0  0  0  0  0  0  0  0  0  0
   10.8892   -8.0480    7.8198 C   0  0  0  0  0  0  0  0  0  0  0  0
   10.4425   -8.7811    8.9297 C   0  0  0  0  0  0  0  0  0  0  0  0
    9.1361   -8.8172    9.2332 F   0  0  0  0  0  0  0  0  0  0  0  0
   11.3443   -9.4357    9.7636 C   0  0  0  0  0  0  0  0  0  0  0  0
   10.9009  -10.0812   10.8511 F   0  0  0  0  0  0  0  0  0  0  0  0
   12.7022   -9.3998    9.4841 C   0  0  0  0  0  0  0  0  0  0  0  0
   13.5697  -10.0256   10.2912 F   0  0  0  0  0  0  0  0  0  0  0  0
   13.1622   -8.7041    8.3758 C   0  0  0  0  0  0  0  0  0  0  0  0
   14.4735   -8.6758    8.1005 F   0  0  0  0  0  0  0  0  0  0  0  0
   12.2659   -8.0252    7.5553 C   0  0  0  0  0  0  0  0  0  0  0  0
   12.7418   -7.3420    6.5036 F   0  0  0  0  0  0  0  0  0  0  0  0
    9.3684   -6.1868    7.4563 C   0  0  0  0  0  0  0  0  0  0  0  0
    8.4475   -5.3259    6.8795 N   0  0  0  0  0  0  0  0  0  0  0  0
    8.1744   -4.4281    7.7942 C   0  0  0  0  0  0  0  0  0  0  0  0
    7.2412   -3.2556    7.7188 C   0  0  0  0  0  0  0  0  0  0  0  0
    7.0671   -2.3323    8.8687 C   0  0  0  0  0  0  0  0  0  0  0  0
    8.1008   -1.4804    9.2788 C   0  0  0  0  0  0  0  0  0  0  0  0
    9.2841   -1.5108    8.6481 F   0  0  0  0  0  0  0  0  0  0  0  0
    7.9343   -0.6185   10.3607 C   0  0  0  0  0  0  0  0  0  0  0  0
    8.9526    0.1553   10.7603 F   0  0  0  0  0  0  0  0  0  0  0  0
    6.7213   -0.5690   11.0317 C   0  0  0  0  0  0  0  0  0  0  0  0
    6.5592    0.2668   12.0662 F   0  0  0  0  0  0  0  0  0  0  0  0
    5.6786   -1.3908   10.6328 C   0  0  0  0  0  0  0  0  0  0  0  0
    4.4989   -1.3333   11.2653 F   0  0  0  0  0  0  0  0  0  0  0  0
    5.8547   -2.2754    9.5725 C   0  0  0  0  0  0  0  0  0  0  0  0
    4.8323   -3.0657    9.2135 F   0  0  0  0  0  0  0  0  0  0  0  0
    6.5497   -3.0455    6.5843 C   0  0  0  0  0  0  0  0  0  0  0  0
    5.6221   -1.9429    6.3610 C   0  0  0  0  0  0  0  0  0  0  0  0
    5.0952   -2.0613    5.1348 C   0  0  0  0  0  0  0  0  0  0  0  0
    5.6935   -3.2179    4.4632 C   0  0  0  0  0  0  0  0  0  0  0  0
    6.5219   -3.7597    5.4115 N   0  0  0  0  0  0  0  0  0  0  0  0
    8.8954   -4.6167    9.0593 C   0  0  0  0  0  0  0  0  0  0  0  0
    9.6390   -5.6789    8.7860 C   0  0  0  0  0  0  0  0  0  0  0  0
    6.4412   -6.2868    1.0599 C   0  0  0  0  0  0  0  0  0  0  0  0
    5.7608   -5.1598    1.2279 C   0  0  0  0  0  0  0  0  0  0  0  0
    3.3535   -3.0854    1.8636 C   0  0  0  0  0  0  0  0  0  0  0  0
    2.5831   -2.2027    1.0980 C   0  0  0  0  0  0  0  0  0  0  0  0
    2.3199    1.3824   -1.4604 H   0  0  0  0  0  0  0  0  0  0  0  0
    4.7592   -0.1096   -0.8938 H   0  0  0  0  0  0  0  0  0  0  0  0
    4.7187    1.6641   -0.9869 H   0  0  0  0  0  0  0  0  0  0  0  0
    3.9833   -0.1499   -3.2246 H   0  0  0  0  0  0  0  0  0  0  0  0
    5.5786    0.6279   -2.9778 H   0  0  0  0  0  0  0  0  0  0  0  0
    3.0031    1.9848   -3.5550 H   0  0  0  0  0  0  0  0  0  0  0  0
    4.4452    1.8010   -4.6092 H   0  0  0  0  0  0  0  0  0  0  0  0
    4.1994    3.4792   -2.1759 H   0  0  0  0  0  0  0  0  0  0  0  0
    4.3942    3.9752   -3.8933 H   0  0  0  0  0  0  0  0  0  0  0  0
    6.4385    2.6904   -2.1678 H   0  0  0  0  0  0  0  0  0  0  0  0
    6.3852    4.3709   -2.7940 H   0  0  0  0  0  0  0  0  0  0  0  0
    6.7337    1.9309   -4.4580 H   0  0  0  0  0  0  0  0  0  0  0  0
    8.0090    3.0482   -3.9553 H   0  0  0  0  0  0  0  0  0  0  0  0
    5.7475    3.9712   -5.5214 H   0  0  0  0  0  0  0  0  0  0  0  0
    9.3690    6.2552   -5.7760 H   0  0  0  0  0  0  0  0  0  0  0  0
   11.7660    6.0556   -5.4506 H   0  0  0  0  0  0  0  0  0  0  0  0
   12.8210    3.8727   -5.5249 H   0  0  0  0  0  0  0  0  0  0  0  0
   11.4913    1.8877   -5.9570 H   0  0  0  0  0  0  0  0  0  0  0  0
    7.9951    1.8696   -6.4792 H   0  0  0  0  0  0  0  0  0  0  0  0
    4.5080    0.5277    1.3742 H   0  0  0  0  0  0  0  0  0  0  0  0
    5.9650   -1.0678    2.4647 H   0  0  0  0  0  0  0  0  0  0  0  0
    9.9775   -9.7444    3.0095 H   0  0  0  0  0  0  0  0  0  0  0  0
   10.8847   -9.6042    5.4500 H   0  0  0  0  0  0  0  0  0  0  0  0
    8.2937   -6.4320    4.8394 H   0  0  0  0  0  0  0  0  0  0  0  0
    5.4066   -1.1936    7.0371 H   0  0  0  0  0  0  0  0  0  0  0  0
    4.3813   -1.4369    4.7280 H   0  0  0  0  0  0  0  0  0  0  0  0
    7.0457   -4.5805    5.2661 H   0  0  0  0  0  0  0  0  0  0  0  0
    8.8382   -4.0672    9.9310 H   0  0  0  0  0  0  0  0  0  0  0  0
   10.3242   -6.0921    9.4378 H   0  0  0  0  0  0  0  0  0  0  0  0
    6.4174   -6.8595    0.2017 H   0  0  0  0  0  0  0  0  0  0  0  0
    5.1520   -4.6618    0.5598 H   0  0  0  0  0  0  0  0  0  0  0  0
    3.0016   -4.0345    2.0643 H   0  0  0  0  0  0  0  0  0  0  0  0
    1.6807   -2.5124    0.7046 H   0  0  0  0  0  0  0  0  0  0  0  0
  1  2  2  0  0  0  0
  2  3  1  0  0  0  0
  2 20  1  0  0  0  0
  3  4  1  0  0  0  0
  3 83  1  0  0  0  0
  4  5  1  0  0  0  0
  4 84  1  0  0  0  0
  4 85  1  0  0  0  0
  5  6  1  0  0  0  0
  5 86  1  0  0  0  0
  5 87  1  0  0  0  0
  6  7  1  0  0  0  0
  6 88  1  0  0  0  0
  6 89  1  0  0  0  0
  7  8  1  0  0  0  0
  7 90  1  0  0  0  0
  7 91  1  0  0  0  0
  8  9  1  0  0  0  0
  8 92  1  0  0  0  0
  8 93  1  0  0  0  0
  9 10  1  0  0  0  0
  9 94  1  0  0  0  0
  9 95  1  0  0  0  0
 10 11  1  0  0  0  0
 10 96  1  0  0  0  0
 11 12  2  0  0  0  0
 11 13  1  0  0  0  0
 13 14  1  0  0  0  0
 13 18  2  0  0  0  0
 14 15  2  0  0  0  0
 14 97  1  0  0  0  0
 15 16  1  0  0  0  0
 15 98  1  0  0  0  0
 16 17  2  0  0  0  0
 16 99  1  0  0  0  0
 17 18  1  0  0  0  0
 17100  1  0  0  0  0
 18 19  1  0  0  0  0
 19101  1  0  0  0  0
 20 21  1  0  0  0  0
 20 82  2  0  0  0  0
 21 22  2  0  0  0  0
 21102  1  0  0  0  0
 22 23  1  0  0  0  0
 22103  1  0  0  0  0
 23 24  1  0  0  0  0
 23 81  2  0  0  0  0
 24 25  1  0  0  0  0
 24 75  2  0  0  0  0
 25 26  2  0  0  0  0
 25 80  1  0  0  0  0
 26 27  1  0  0  0  0
 27 28  2  0  0  0  0
 27 79  1  0  0  0  0
 28 29  1  0  0  0  0
 28 40  1  0  0  0  0
 29 30  1  0  0  0  0
 29 38  2  0  0  0  0
 30 31  1  0  0  0  0
 30 32  2  0  0  0  0
 32 33  1  0  0  0  0
 32 34  1  0  0  0  0
 34 35  1  0  0  0  0
 34 36  2  0  0  0  0
 36 37  1  0  0  0  0
 36 38  1  0  0  0  0
 38 39  1  0  0  0  0
 40 41  2  0  0  0  0
 40 44  1  0  0  0  0
 41 42  1  0  0  0  0
 41104  1  0  0  0  0
 42 43  2  0  0  0  0
 42105  1  0  0  0  0
 43 44  1  0  0  0  0
 43 45  1  0  0  0  0
 44106  1  0  0  0  0
 45 46  1  0  0  0  0
 45 57  2  0  0  0  0
 46 47  1  0  0  0  0
 46 55  2  0  0  0  0
 47 48  1  0  0  0  0
 47 49  2  0  0  0  0
 49 50  1  0  0  0  0
 49 51  1  0  0  0  0
 51 52  1  0  0  0  0
 51 53  2  0  0  0  0
 53 54  1  0  0  0  0
 53 55  1  0  0  0  0
 55 56  1  0  0  0  0
 57 58  1  0  0  0  0
 57 78  1  0  0  0  0
 58 59  2  0  0  0  0
 59 60  1  0  0  0  0
 59 77  1  0  0  0  0
 60 61  1  0  0  0  0
 60 72  2  0  0  0  0
 61 62  1  0  0  0  0
 61 70  2  0  0  0  0
 62 63  1  0  0  0  0
 62 64  2  0  0  0  0
 64 65  1  0  0  0  0
 64 66  1  0  0  0  0
 66 67  1  0  0  0  0
 66 68  2  0  0  0  0
 68 69  1  0  0  0  0
 68 70  1  0  0  0  0
 70 71  1  0  0  0  0
 72 73  1  0  0  0  0
 72 76  1  0  0  0  0
 73 74  2  0  0  0  0
 73107  1  0  0  0  0
 74 75  1  0  0  0  0
 74108  1  0  0  0  0
 75 76  1  0  0  0  0
 76109  1  0  0  0  0
 77 78  2  0  0  0  0
 77110  1  0  0  0  0
 78111  1  0  0  0  0
 79 80  2  0  0  0  0
 79112  1  0  0  0  0
 80113  1  0  0  0  0
 81 82  1  0  0  0  0
 81114  1  0  0  0  0
 82115  1  0  0  0  0
M  END
$$$$
