ligands/24-CHEMBL145
 OpenBabel10182222433D

120129  0  0  0  0  0  0  0  0999 V2000
    0.9447    0.2460   -0.0346 O   0  0  0  0  0  0  0  0  0  0  0  0
    2.1487    0.0176   -0.0004 C   0  0  0  0  0  0  0  0  0  0  0  0
    2.9880    0.7036    1.0160 C   0  0  0  0  0  0  0  0  0  0  0  0
    4.3269    0.8000    1.0092 C   0  0  0  0  0  0  0  0  0  0  0  0
    5.0619    1.6155    1.9859 C   0  0  0  0  0  0  0  0  0  0  0  0
    4.7615    1.5952    3.3586 C   0  0  0  0  0  0  0  0  0  0  0  0
    5.4659    2.4044    4.2580 C   0  0  0  0  0  0  0  0  0  0  0  0
    6.4786    3.2255    3.7797 C   0  0  0  0  0  0  0  0  0  0  0  0
    7.1912    4.0519    4.6029 O   0  0  0  0  0  0  0  0  0  0  0  0
    6.7980    3.2292    2.4253 C   0  0  0  0  0  0  0  0  0  0  0  0
    7.7974    4.0366    1.9619 O   0  0  0  0  0  0  0  0  0  0  0  0
    6.1062    2.4283    1.5270 C   0  0  0  0  0  0  0  0  0  0  0  0
    2.7920   -0.8488   -0.8409 N   0  0  0  0  0  0  0  0  0  0  0  0
    2.1257   -1.4817   -1.9605 C   0  0  0  0  0  0  0  0  0  0  0  0
    2.6469   -0.9487   -3.2962 C   0  0  0  0  0  0  0  0  0  0  0  0
    4.1493   -1.1617   -3.5284 C   0  0  0  0  0  0  0  0  0  0  0  0
    4.6271   -2.6155   -3.4544 C   0  0  0  0  0  0  0  0  0  0  0  0
    3.9391   -3.5773   -4.4241 C   0  0  0  0  0  0  0  0  0  0  0  0
    4.0819   -3.2128   -5.8980 C   0  0  0  0  0  0  0  0  0  0  0  0
    5.4588   -3.2921   -6.3632 N   0  0  0  0  0  0  0  0  0  0  0  0
    5.9696   -3.9549   -7.4528 C   0  0  0  0  0  0  0  0  0  0  0  0
    7.1831   -4.0504   -7.6110 O   0  0  0  0  0  0  0  0  0  0  0  0
    5.0497   -4.5814   -8.4261 C   0  0  0  0  0  0  0  0  0  0  0  0
    5.2957   -5.8905   -8.8486 C   0  0  0  0  0  0  0  0  0  0  0  0
    4.3877   -6.5262   -9.6997 C   0  0  0  0  0  0  0  0  0  0  0  0
    3.2121   -5.8705  -10.0997 C   0  0  0  0  0  0  0  0  0  0  0  0
    2.1870   -6.5471  -10.9369 C   0  0  0  0  0  0  0  0  0  0  0  0
    1.8662   -6.0126  -12.3063 C   0  0  0  0  0  0  0  0  0  0  0  0
    0.9235   -6.3774  -13.1384 N   0  0  0  0  0  0  0  0  0  0  0  0
    1.0318   -5.5251  -14.2296 C   0  0  0  0  0  0  0  0  0  0  0  0
    0.3088   -5.5257  -15.3741 C   0  0  0  0  0  0  0  0  0  0  0  0
    0.6057   -4.4710  -16.3996 C   0  0  0  0  0  0  0  0  0  0  0  0
    1.7817   -4.4935  -17.1630 C   0  0  0  0  0  0  0  0  0  0  0  0
    2.7229   -5.4197  -16.9265 F   0  0  0  0  0  0  0  0  0  0  0  0
    2.0042   -3.5497  -18.1624 C   0  0  0  0  0  0  0  0  0  0  0  0
    3.1489   -3.5716  -18.8591 F   0  0  0  0  0  0  0  0  0  0  0  0
    1.0443   -2.5874  -18.4387 C   0  0  0  0  0  0  0  0  0  0  0  0
    1.2505   -1.6942  -19.4162 F   0  0  0  0  0  0  0  0  0  0  0  0
   -0.1294   -2.5512  -17.7016 C   0  0  0  0  0  0  0  0  0  0  0  0
   -1.0656   -1.6328  -17.9778 F   0  0  0  0  0  0  0  0  0  0  0  0
   -0.3419   -3.4746  -16.6820 C   0  0  0  0  0  0  0  0  0  0  0  0
   -1.4868   -3.4129  -15.9852 F   0  0  0  0  0  0  0  0  0  0  0  0
   -0.7294   -6.4754  -15.6758 C   0  0  0  0  0  0  0  0  0  0  0  0
   -1.4599   -6.6084  -16.8437 C   0  0  0  0  0  0  0  0  0  0  0  0
   -2.3982   -7.6268  -16.6582 C   0  0  0  0  0  0  0  0  0  0  0  0
   -2.2095   -8.1707  -15.3983 C   0  0  0  0  0  0  0  0  0  0  0  0
   -1.1856   -7.4514  -14.8038 N   0  0  0  0  0  0  0  0  0  0  0  0
   -2.9167   -9.2614  -14.7800 C   0  0  0  0  0  0  0  0  0  0  0  0
   -3.9889   -9.9378  -15.5842 C   0  0  0  0  0  0  0  0  0  0  0  0
   -5.3489   -9.7934  -15.2762 C   0  0  0  0  0  0  0  0  0  0  0  0
   -5.7261   -9.0925  -14.1962 F   0  0  0  0  0  0  0  0  0  0  0  0
   -6.3275  -10.3998  -16.0596 C   0  0  0  0  0  0  0  0  0  0  0  0
   -7.6192  -10.2860  -15.7210 F   0  0  0  0  0  0  0  0  0  0  0  0
   -5.9682  -11.1287  -17.1838 C   0  0  0  0  0  0  0  0  0  0  0  0
   -6.9127  -11.6986  -17.9447 F   0  0  0  0  0  0  0  0  0  0  0  0
   -4.6300  -11.2707  -17.5165 C   0  0  0  0  0  0  0  0  0  0  0  0
   -4.2810  -11.9594  -18.6119 F   0  0  0  0  0  0  0  0  0  0  0  0
   -3.6480  -10.6945  -16.7167 C   0  0  0  0  0  0  0  0  0  0  0  0
   -2.3612  -10.8566  -17.0597 F   0  0  0  0  0  0  0  0  0  0  0  0
   -2.6687   -9.7380  -13.5362 C   0  0  0  0  0  0  0  0  0  0  0  0
   -1.7052   -9.3329  -12.6215 N   0  0  0  0  0  0  0  0  0  0  0  0
   -1.8708  -10.0898  -11.5645 C   0  0  0  0  0  0  0  0  0  0  0  0
   -1.0798  -10.1231  -10.2816 C   0  0  0  0  0  0  0  0  0  0  0  0
   -1.4418  -11.0823   -9.2024 C   0  0  0  0  0  0  0  0  0  0  0  0
   -1.3150  -12.4658   -9.3967 C   0  0  0  0  0  0  0  0  0  0  0  0
   -0.8325  -12.9371  -10.5562 F   0  0  0  0  0  0  0  0  0  0  0  0
   -1.7437  -13.3729   -8.4296 C   0  0  0  0  0  0  0  0  0  0  0  0
   -1.6775  -14.6889   -8.6731 F   0  0  0  0  0  0  0  0  0  0  0  0
   -2.2683  -12.9152   -7.2309 C   0  0  0  0  0  0  0  0  0  0  0  0
   -2.6903  -13.7873   -6.3053 F   0  0  0  0  0  0  0  0  0  0  0  0
   -2.3690  -11.5518   -6.9997 C   0  0  0  0  0  0  0  0  0  0  0  0
   -2.8621  -11.1050   -5.8366 F   0  0  0  0  0  0  0  0  0  0  0  0
   -1.9733  -10.6442   -7.9807 C   0  0  0  0  0  0  0  0  0  0  0  0
   -2.1129   -9.3325   -7.7393 F   0  0  0  0  0  0  0  0  0  0  0  0
   -0.0447   -9.2744  -10.1265 C   0  0  0  0  0  0  0  0  0  0  0  0
    0.8010   -9.1769   -8.9408 C   0  0  0  0  0  0  0  0  0  0  0  0
    1.6764   -8.1720   -9.1075 C   0  0  0  0  0  0  0  0  0  0  0  0
    1.4858   -7.5831  -10.4342 C   0  0  0  0  0  0  0  0  0  0  0  0
    0.4538   -8.3129  -10.9733 N   0  0  0  0  0  0  0  0  0  0  0  0
   -2.9933  -11.0332  -11.6768 C   0  0  0  0  0  0  0  0  0  0  0  0
   -3.4107  -10.8130  -12.9148 C   0  0  0  0  0  0  0  0  0  0  0  0
    2.1064   -4.6009  -13.9422 C   0  0  0  0  0  0  0  0  0  0  0  0
    2.6985   -4.9011  -12.7952 C   0  0  0  0  0  0  0  0  0  0  0  0
    3.0002   -4.5417   -9.6978 C   0  0  0  0  0  0  0  0  0  0  0  0
    3.9400   -3.8838   -8.9097 C   0  0  0  0  0  0  0  0  0  0  0  0
    2.4932    1.1495    1.8042 H   0  0  0  0  0  0  0  0  0  0  0  0
    4.8592    0.2827    0.2922 H   0  0  0  0  0  0  0  0  0  0  0  0
    4.0129    0.9765    3.7077 H   0  0  0  0  0  0  0  0  0  0  0  0
    5.2355    2.3909    5.2639 H   0  0  0  0  0  0  0  0  0  0  0  0
    7.0029    4.0751    5.5205 H   0  0  0  0  0  0  0  0  0  0  0  0
    8.2726    4.5824    2.5570 H   0  0  0  0  0  0  0  0  0  0  0  0
    6.3599    2.4317    0.5267 H   0  0  0  0  0  0  0  0  0  0  0  0
    3.7421   -1.0495   -0.6790 H   0  0  0  0  0  0  0  0  0  0  0  0
    1.0754   -1.2882   -1.8948 H   0  0  0  0  0  0  0  0  0  0  0  0
    2.3224   -2.5326   -1.9183 H   0  0  0  0  0  0  0  0  0  0  0  0
    2.4490    0.1021   -3.3360 H   0  0  0  0  0  0  0  0  0  0  0  0
    2.1413   -1.5010   -4.0605 H   0  0  0  0  0  0  0  0  0  0  0  0
    4.6803   -0.6018   -2.7872 H   0  0  0  0  0  0  0  0  0  0  0  0
    4.3409   -0.8395   -4.5306 H   0  0  0  0  0  0  0  0  0  0  0  0
    4.4559   -2.9699   -2.4594 H   0  0  0  0  0  0  0  0  0  0  0  0
    5.6604   -2.6029   -3.7319 H   0  0  0  0  0  0  0  0  0  0  0  0
    2.8960   -3.5995   -4.1865 H   0  0  0  0  0  0  0  0  0  0  0  0
    4.4213   -4.5245   -4.3007 H   0  0  0  0  0  0  0  0  0  0  0  0
    3.7295   -2.2124   -6.0394 H   0  0  0  0  0  0  0  0  0  0  0  0
    3.5078   -3.9170   -6.4631 H   0  0  0  0  0  0  0  0  0  0  0  0
    6.1172   -2.8013   -5.8202 H   0  0  0  0  0  0  0  0  0  0  0  0
    6.1444   -6.3858   -8.5334 H   0  0  0  0  0  0  0  0  0  0  0  0
    4.5821   -7.4823  -10.0359 H   0  0  0  0  0  0  0  0  0  0  0  0
   -1.3334   -6.0515  -17.7033 H   0  0  0  0  0  0  0  0  0  0  0  0
   -3.1107   -7.9234  -17.3433 H   0  0  0  0  0  0  0  0  0  0  0  0
   -0.8346   -7.6098  -13.8977 H   0  0  0  0  0  0  0  0  0  0  0  0
    0.7366   -9.7829   -8.1080 H   0  0  0  0  0  0  0  0  0  0  0  0
    2.3728   -7.8639   -8.4110 H   0  0  0  0  0  0  0  0  0  0  0  0
    0.1041   -8.1614  -11.8810 H   0  0  0  0  0  0  0  0  0  0  0  0
   -3.3602  -11.6943  -10.9745 H   0  0  0  0  0  0  0  0  0  0  0  0
   -4.1680  -11.3407  -13.3765 H   0  0  0  0  0  0  0  0  0  0  0  0
    2.3765   -3.8118  -14.5500 H   0  0  0  0  0  0  0  0  0  0  0  0
    3.5273   -4.4683  -12.3584 H   0  0  0  0  0  0  0  0  0  0  0  0
    2.1412   -4.0493   -9.9890 H   0  0  0  0  0  0  0  0  0  0  0  0
    3.8176   -2.8844   -8.6834 H   0  0  0  0  0  0  0  0  0  0  0  0
  1  2  2  0  0  0  0
  2  3  1  0  0  0  0
  2 13  1  0  0  0  0
  3  4  2  0  0  0  0
  3 86  1  0  0  0  0
  4  5  1  0  0  0  0
  4 87  1  0  0  0  0
  5  6  1  0  0  0  0
  5 12  2  0  0  0  0
  6  7  2  0  0  0  0
  6 88  1  0  0  0  0
  7  8  1  0  0  0  0
  7 89  1  0  0  0  0
  8  9  1  0  0  0  0
  8 10  2  0  0  0  0
  9 90  1  0  0  0  0
 10 11  1  0  0  0  0
 10 12  1  0  0  0  0
 11 91  1  0  0  0  0
 12 92  1  0  0  0  0
 13 14  1  0  0  0  0
 13 93  1  0  0  0  0
 14 15  1  0  0  0  0
 14 94  1  0  0  0  0
 14 95  1  0  0  0  0
 15 16  1  0  0  0  0
 15 96  1  0  0  0  0
 15 97  1  0  0  0  0
 16 17  1  0  0  0  0
 16 98  1  0  0  0  0
 16 99  1  0  0  0  0
 17 18  1  0  0  0  0
 17100  1  0  0  0  0
 17101  1  0  0  0  0
 18 19  1  0  0  0  0
 18102  1  0  0  0  0
 18103  1  0  0  0  0
 19 20  1  0  0  0  0
 19104  1  0  0  0  0
 19105  1  0  0  0  0
 20 21  1  0  0  0  0
 20106  1  0  0  0  0
 21 22  2  0  0  0  0
 21 23  1  0  0  0  0
 23 24  1  0  0  0  0
 23 85  2  0  0  0  0
 24 25  2  0  0  0  0
 24107  1  0  0  0  0
 25 26  1  0  0  0  0
 25108  1  0  0  0  0
 26 27  1  0  0  0  0
 26 84  2  0  0  0  0
 27 28  1  0  0  0  0
 27 78  2  0  0  0  0
 28 29  2  0  0  0  0
 28 83  1  0  0  0  0
 29 30  1  0  0  0  0
 30 31  2  0  0  0  0
 30 82  1  0  0  0  0
 31 32  1  0  0  0  0
 31 43  1  0  0  0  0
 32 33  1  0  0  0  0
 32 41  2  0  0  0  0
 33 34  1  0  0  0  0
 33 35  2  0  0  0  0
 35 36  1  0  0  0  0
 35 37  1  0  0  0  0
 37 38  1  0  0  0  0
 37 39  2  0  0  0  0
 39 40  1  0  0  0  0
 39 41  1  0  0  0  0
 41 42  1  0  0  0  0
 43 44  2  0  0  0  0
 43 47  1  0  0  0  0
 44 45  1  0  0  0  0
 44109  1  0  0  0  0
 45 46  2  0  0  0  0
 45110  1  0  0  0  0
 46 47  1  0  0  0  0
 46 48  1  0  0  0  0
 47111  1  0  0  0  0
 48 49  1  0  0  0  0
 48 60  2  0  0  0  0
 49 50  1  0  0  0  0
 49 58  2  0  0  0  0
 50 51  1  0  0  0  0
 50 52  2  0  0  0  0
 52 53  1  0  0  0  0
 52 54  1  0  0  0  0
 54 55  1  0  0  0  0
 54 56  2  0  0  0  0
 56 57  1  0  0  0  0
 56 58  1  0  0  0  0
 58 59  1  0  0  0  0
 60 61  1  0  0  0  0
 60 81  1  0  0  0  0
 61 62  2  0  0  0  0
 62 63  1  0  0  0  0
 62 80  1  0  0  0  0
 63 64  1  0  0  0  0
 63 75  2  0  0  0  0
 64 65  1  0  0  0  0
 64 73  2  0  0  0  0
 65 66  1  0  0  0  0
 65 67  2  0  0  0  0
 67 68  1  0  0  0  0
 67 69  1  0  0  0  0
 69 70  1  0  0  0  0
 69 71  2  0  0  0  0
 71 72  1  0  0  0  0
 71 73  1  0  0  0  0
 73 74  1  0  0  0  0
 75 76  1  0  0  0  0
 75 79  1  0  0  0  0
 76 77  2  0  0  0  0
 76112  1  0  0  0  0
 77 78  1  0  0  0  0
 77113  1  0  0  0  0
 78 79  1  0  0  0  0
 79114  1  0  0  0  0
 80 81  2  0  0  0  0
 80115  1  0  0  0  0
 81116  1  0  0  0  0
 82 83  2  0  0  0  0
 82117  1  0  0  0  0
 83118  1  0  0  0  0
 84 85  1  0  0  0  0
 84119  1  0  0  0  0
 85120  1  0  0  0  0
M  END
$$$$
