ligands/3-CHEMBL6
 OpenBabel10182222423D

140151  0  0  0  0  0  0  0  0999 V2000
    0.7874   -0.0908    0.1141 C   0  0  0  0  0  0  0  0  0  0  0  0
    0.2691   -1.0976   -0.7487 O   0  0  0  0  0  0  0  0  0  0  0  0
    0.7219   -1.0448   -2.0385 C   0  0  0  0  0  0  0  0  0  0  0  0
    1.9879   -0.6246   -2.4145 C   0  0  0  0  0  0  0  0  0  0  0  0
    2.3725   -0.6261   -3.7598 C   0  0  0  0  0  0  0  0  0  0  0  0
    1.4752   -1.0962   -4.7414 C   0  0  0  0  0  0  0  0  0  0  0  0
    0.1803   -1.4795   -4.3773 C   0  0  0  0  0  0  0  0  0  0  0  0
   -0.1816   -1.4761   -3.0111 C   0  0  0  0  0  0  0  0  0  0  0  0
   -0.5406   -1.7648   -5.5706 C   0  0  0  0  0  0  0  0  0  0  0  0
   -1.9932   -2.1438   -5.6613 C   0  0  0  0  0  0  0  0  0  0  0  0
   -2.3690   -3.3656   -4.8376 C   0  0  0  0  0  0  0  0  0  0  0  0
   -3.1365   -3.2815   -3.8761 O   0  0  0  0  0  0  0  0  0  0  0  0
   -1.9082   -4.6013   -5.1919 N   0  0  0  0  0  0  0  0  0  0  0  0
   -0.9688   -4.9499   -6.2380 C   0  0  0  0  0  0  0  0  0  0  0  0
    0.3945   -5.3269   -5.6589 C   0  0  0  0  0  0  0  0  0  0  0  0
    0.4250   -6.7178   -5.0138 C   0  0  0  0  0  0  0  0  0  0  0  0
    0.1575   -7.8819   -5.9737 C   0  0  0  0  0  0  0  0  0  0  0  0
    1.0884   -7.9563   -7.1891 C   0  0  0  0  0  0  0  0  0  0  0  0
    2.5768   -8.0382   -6.8423 C   0  0  0  0  0  0  0  0  0  0  0  0
    2.9096   -9.1596   -5.9868 N   0  0  0  0  0  0  0  0  0  0  0  0
    3.1444  -10.4916   -6.1858 C   0  0  0  0  0  0  0  0  0  0  0  0
    3.4645  -11.1417   -5.1871 O   0  0  0  0  0  0  0  0  0  0  0  0
    3.0073  -11.2078   -7.4859 C   0  0  0  0  0  0  0  0  0  0  0  0
    2.6955  -10.6175   -8.7087 C   0  0  0  0  0  0  0  0  0  0  0  0
    2.4867  -11.3993   -9.8408 C   0  0  0  0  0  0  0  0  0  0  0  0
    2.6179  -12.7897   -9.7797 C   0  0  0  0  0  0  0  0  0  0  0  0
    2.4034  -13.5306  -11.0227 C   0  0  0  0  0  0  0  0  0  0  0  0
    3.2970  -13.1635  -12.1565 C   0  0  0  0  0  0  0  0  0  0  0  0
    2.9646  -12.6893  -13.3142 N   0  0  0  0  0  0  0  0  0  0  0  0
    4.1463  -12.6013  -14.0483 C   0  0  0  0  0  0  0  0  0  0  0  0
    4.1300  -12.5118  -15.4061 C   0  0  0  0  0  0  0  0  0  0  0  0
    5.1201  -13.1951  -16.3276 C   0  0  0  0  0  0  0  0  0  0  0  0
    5.0485  -12.9500  -17.7171 C   0  0  0  0  0  0  0  0  0  0  0  0
    4.3336  -11.9198  -18.1946 F   0  0  0  0  0  0  0  0  0  0  0  0
    5.6309  -13.8103  -18.6530 C   0  0  0  0  0  0  0  0  0  0  0  0
    5.4298  -13.6066  -19.9623 F   0  0  0  0  0  0  0  0  0  0  0  0
    6.3541  -14.9118  -18.2365 C   0  0  0  0  0  0  0  0  0  0  0  0
    6.8598  -15.7727  -19.1295 F   0  0  0  0  0  0  0  0  0  0  0  0
    6.5081  -15.1457  -16.8861 C   0  0  0  0  0  0  0  0  0  0  0  0
    7.1875  -16.2219  -16.4646 F   0  0  0  0  0  0  0  0  0  0  0  0
    5.8861  -14.3182  -15.9503 C   0  0  0  0  0  0  0  0  0  0  0  0
    5.9666  -14.7266  -14.6786 F   0  0  0  0  0  0  0  0  0  0  0  0
    2.8398  -12.1177  -15.9000 C   0  0  0  0  0  0  0  0  0  0  0  0
    2.1221  -10.9501  -16.0246 C   0  0  0  0  0  0  0  0  0  0  0  0
    0.7520  -11.3333  -16.1400 C   0  0  0  0  0  0  0  0  0  0  0  0
    0.6791  -12.7224  -16.0745 C   0  0  0  0  0  0  0  0  0  0  0  0
    1.9776  -13.1526  -16.1244 N   0  0  0  0  0  0  0  0  0  0  0  0
   -0.3826  -13.6387  -15.7291 C   0  0  0  0  0  0  0  0  0  0  0  0
   -1.6662  -13.0765  -15.2117 C   0  0  0  0  0  0  0  0  0  0  0  0
   -2.0341  -13.0715  -13.8578 C   0  0  0  0  0  0  0  0  0  0  0  0
   -1.2203  -13.5761  -12.9208 F   0  0  0  0  0  0  0  0  0  0  0  0
   -3.2382  -12.5039  -13.4458 C   0  0  0  0  0  0  0  0  0  0  0  0
   -3.5833  -12.5270  -12.1500 F   0  0  0  0  0  0  0  0  0  0  0  0
   -4.0715  -11.8910  -14.3688 C   0  0  0  0  0  0  0  0  0  0  0  0
   -5.2130  -11.3149  -13.9668 F   0  0  0  0  0  0  0  0  0  0  0  0
   -3.7100  -11.8540  -15.7057 C   0  0  0  0  0  0  0  0  0  0  0  0
   -4.4903  -11.2244  -16.5952 F   0  0  0  0  0  0  0  0  0  0  0  0
   -2.5267  -12.4518  -16.1247 C   0  0  0  0  0  0  0  0  0  0  0  0
   -2.1978  -12.3892  -17.4249 F   0  0  0  0  0  0  0  0  0  0  0  0
   -0.2064  -14.9862  -15.6410 C   0  0  0  0  0  0  0  0  0  0  0  0
   -0.8607  -15.7210  -14.6749 N   0  0  0  0  0  0  0  0  0  0  0  0
   -0.0016  -16.6406  -14.3330 C   0  0  0  0  0  0  0  0  0  0  0  0
    0.0475  -17.2747  -12.9958 C   0  0  0  0  0  0  0  0  0  0  0  0
   -0.0744  -18.7384  -12.8125 C   0  0  0  0  0  0  0  0  0  0  0  0
   -0.7781  -19.5273  -13.7365 C   0  0  0  0  0  0  0  0  0  0  0  0
   -1.5416  -18.9496  -14.6755 F   0  0  0  0  0  0  0  0  0  0  0  0
   -0.6465  -20.9183  -13.7600 C   0  0  0  0  0  0  0  0  0  0  0  0
   -1.2729  -21.6316  -14.7061 F   0  0  0  0  0  0  0  0  0  0  0  0
    0.1792  -21.5590  -12.8512 C   0  0  0  0  0  0  0  0  0  0  0  0
    0.3588  -22.8852  -12.9170 F   0  0  0  0  0  0  0  0  0  0  0  0
    0.8543  -20.8141  -11.9024 C   0  0  0  0  0  0  0  0  0  0  0  0
    1.6808  -21.4191  -11.0377 F   0  0  0  0  0  0  0  0  0  0  0  0
    0.7341  -19.4251  -11.8860 C   0  0  0  0  0  0  0  0  0  0  0  0
    1.4992  -18.7570  -11.0110 F   0  0  0  0  0  0  0  0  0  0  0  0
    0.4204  -16.3476  -12.0844 C   0  0  0  0  0  0  0  0  0  0  0  0
    0.2067  -16.3413  -10.6461 C   0  0  0  0  0  0  0  0  0  0  0  0
    0.7692  -15.2291  -10.1247 C   0  0  0  0  0  0  0  0  0  0  0  0
    1.5123  -14.5303  -11.1742 C   0  0  0  0  0  0  0  0  0  0  0  0
    1.1459  -15.1915  -12.3167 N   0  0  0  0  0  0  0  0  0  0  0  0
    1.0851  -16.8621  -15.2824 C   0  0  0  0  0  0  0  0  0  0  0  0
    0.8773  -15.8343  -16.1084 C   0  0  0  0  0  0  0  0  0  0  0  0
    5.2207  -12.8847  -13.1334 C   0  0  0  0  0  0  0  0  0  0  0  0
    4.7475  -13.2882  -11.9531 C   0  0  0  0  0  0  0  0  0  0  0  0
    3.0034  -13.3924   -8.5876 C   0  0  0  0  0  0  0  0  0  0  0  0
    3.1819  -12.6060   -7.4500 C   0  0  0  0  0  0  0  0  0  0  0  0
    0.3262   -1.5360   -6.6332 C   0  0  0  0  0  0  0  0  0  0  0  0
   -0.0012   -1.5459   -8.0937 C   0  0  0  0  0  0  0  0  0  0  0  0
    1.6116   -1.3181   -6.1202 N   0  0  0  0  0  0  0  0  0  0  0  0
    2.8242   -1.3410   -6.8744 C   0  0  0  0  0  0  0  0  0  0  0  0
    2.7866   -1.6197   -8.0595 O   0  0  0  0  0  0  0  0  0  0  0  0
    4.1646   -1.0757   -6.3170 C   0  0  0  0  0  0  0  0  0  0  0  0
    4.7764   -1.9972   -5.4606 C   0  0  0  0  0  0  0  0  0  0  0  0
    6.0046   -1.6755   -4.8775 C   0  0  0  0  0  0  0  0  0  0  0  0
    6.6187   -0.4569   -5.1767 C   0  0  0  0  0  0  0  0  0  0  0  0
    8.1062   -0.0437   -4.4183 Cl  0  0  0  0  0  0  0  0  0  0  0  0
    6.0298    0.4361   -6.0735 C   0  0  0  0  0  0  0  0  0  0  0  0
    4.7994    0.1244   -6.6543 C   0  0  0  0  0  0  0  0  0  0  0  0
    0.3769   -0.2152    1.0944 H   0  0  0  0  0  0  0  0  0  0  0  0
    0.5218    0.8743   -0.2640 H   0  0  0  0  0  0  0  0  0  0  0  0
    1.8531   -0.1748    0.1604 H   0  0  0  0  0  0  0  0  0  0  0  0
    2.6548   -0.3069   -1.6938 H   0  0  0  0  0  0  0  0  0  0  0  0
    3.3076   -0.2851   -4.0324 H   0  0  0  0  0  0  0  0  0  0  0  0
   -1.1220   -1.7952   -2.7302 H   0  0  0  0  0  0  0  0  0  0  0  0
   -2.2244   -2.3456   -6.6864 H   0  0  0  0  0  0  0  0  0  0  0  0
   -2.5518   -1.3214   -5.2657 H   0  0  0  0  0  0  0  0  0  0  0  0
   -2.2613   -5.3554   -4.6666 H   0  0  0  0  0  0  0  0  0  0  0  0
   -0.8495   -4.1119   -6.8925 H   0  0  0  0  0  0  0  0  0  0  0  0
   -1.3545   -5.7945   -6.7698 H   0  0  0  0  0  0  0  0  0  0  0  0
    0.6579   -4.6036   -4.9157 H   0  0  0  0  0  0  0  0  0  0  0  0
    1.0874   -5.3442   -6.4741 H   0  0  0  0  0  0  0  0  0  0  0  0
   -0.3188   -6.7437   -4.2450 H   0  0  0  0  0  0  0  0  0  0  0  0
    1.4204   -6.8556   -4.6461 H   0  0  0  0  0  0  0  0  0  0  0  0
   -0.8467   -7.7910   -6.3316 H   0  0  0  0  0  0  0  0  0  0  0  0
    0.3333   -8.7752   -5.4115 H   0  0  0  0  0  0  0  0  0  0  0  0
    0.9314   -7.0814   -7.7848 H   0  0  0  0  0  0  0  0  0  0  0  0
    0.8451   -8.8617   -7.7048 H   0  0  0  0  0  0  0  0  0  0  0  0
    2.8583   -7.1352   -6.3420 H   0  0  0  0  0  0  0  0  0  0  0  0
    3.1073   -8.1749   -7.7614 H   0  0  0  0  0  0  0  0  0  0  0  0
    2.9841   -8.9015   -5.0397 H   0  0  0  0  0  0  0  0  0  0  0  0
    2.6186   -9.5905   -8.7756 H   0  0  0  0  0  0  0  0  0  0  0  0
    2.2327  -10.9485  -10.7337 H   0  0  0  0  0  0  0  0  0  0  0  0
    2.4991   -9.9895  -16.0329 H   0  0  0  0  0  0  0  0  0  0  0  0
   -0.0477  -10.6908  -16.2527 H   0  0  0  0  0  0  0  0  0  0  0  0
    2.2525  -14.0818  -16.2984 H   0  0  0  0  0  0  0  0  0  0  0  0
   -0.2933  -17.0682  -10.1107 H   0  0  0  0  0  0  0  0  0  0  0  0
    0.6879  -14.9214   -9.1430 H   0  0  0  0  0  0  0  0  0  0  0  0
    1.3771  -14.8740  -13.2194 H   0  0  0  0  0  0  0  0  0  0  0  0
    1.8059  -17.6002  -15.3076 H   0  0  0  0  0  0  0  0  0  0  0  0
    1.4182  -15.6634  -16.9705 H   0  0  0  0  0  0  0  0  0  0  0  0
    6.2229  -12.7886  -13.3601 H   0  0  0  0  0  0  0  0  0  0  0  0
    5.2638  -13.6045  -11.1174 H   0  0  0  0  0  0  0  0  0  0  0  0
    3.1560  -14.4122   -8.5451 H   0  0  0  0  0  0  0  0  0  0  0  0
    3.4480  -13.0581   -6.5613 H   0  0  0  0  0  0  0  0  0  0  0  0
   -1.0467   -1.7330   -8.2236 H   0  0  0  0  0  0  0  0  0  0  0  0
    0.5619   -2.3148   -8.5802 H   0  0  0  0  0  0  0  0  0  0  0  0
    0.2472   -0.5970   -8.5213 H   0  0  0  0  0  0  0  0  0  0  0  0
    4.3258   -2.9041   -5.2618 H   0  0  0  0  0  0  0  0  0  0  0  0
    6.4572   -2.3367   -4.2271 H   0  0  0  0  0  0  0  0  0  0  0  0
    6.5024    1.3235   -6.3063 H   0  0  0  0  0  0  0  0  0  0  0  0
    4.3618    0.7736   -7.3267 H   0  0  0  0  0  0  0  0  0  0  0  0
  1  2  1  0  0  0  0
  1 98  1  0  0  0  0
  1 99  1  0  0  0  0
  1100  1  0  0  0  0
  2  3  1  0  0  0  0
  3  4  1  0  0  0  0
  3  8  2  0  0  0  0
  4  5  2  0  0  0  0
  4101  1  0  0  0  0
  5  6  1  0  0  0  0
  5102  1  0  0  0  0
  6  7  2  0  0  0  0
  6 88  1  0  0  0  0
  7  8  1  0  0  0  0
  7  9  1  0  0  0  0
  8103  1  0  0  0  0
  9 10  1  0  0  0  0
  9 86  2  0  0  0  0
 10 11  1  0  0  0  0
 10104  1  0  0  0  0
 10105  1  0  0  0  0
 11 12  2  0  0  0  0
 11 13  1  0  0  0  0
 13 14  1  0  0  0  0
 13106  1  0  0  0  0
 14 15  1  0  0  0  0
 14107  1  0  0  0  0
 14108  1  0  0  0  0
 15 16  1  0  0  0  0
 15109  1  0  0  0  0
 15110  1  0  0  0  0
 16 17  1  0  0  0  0
 16111  1  0  0  0  0
 16112  1  0  0  0  0
 17 18  1  0  0  0  0
 17113  1  0  0  0  0
 17114  1  0  0  0  0
 18 19  1  0  0  0  0
 18115  1  0  0  0  0
 18116  1  0  0  0  0
 19 20  1  0  0  0  0
 19117  1  0  0  0  0
 19118  1  0  0  0  0
 20 21  1  0  0  0  0
 20119  1  0  0  0  0
 21 22  2  0  0  0  0
 21 23  1  0  0  0  0
 23 24  1  0  0  0  0
 23 85  2  0  0  0  0
 24 25  2  0  0  0  0
 24120  1  0  0  0  0
 25 26  1  0  0  0  0
 25121  1  0  0  0  0
 26 27  1  0  0  0  0
 26 84  2  0  0  0  0
 27 28  1  0  0  0  0
 27 78  2  0  0  0  0
 28 29  2  0  0  0  0
 28 83  1  0  0  0  0
 29 30  1  0  0  0  0
 30 31  2  0  0  0  0
 30 82  1  0  0  0  0
 31 32  1  0  0  0  0
 31 43  1  0  0  0  0
 32 33  1  0  0  0  0
 32 41  2  0  0  0  0
 33 34  1  0  0  0  0
 33 35  2  0  0  0  0
 35 36  1  0  0  0  0
 35 37  1  0  0  0  0
 37 38  1  0  0  0  0
 37 39  2  0  0  0  0
 39 40  1  0  0  0  0
 39 41  1  0  0  0  0
 41 42  1  0  0  0  0
 43 44  2  0  0  0  0
 43 47  1  0  0  0  0
 44 45  1  0  0  0  0
 44122  1  0  0  0  0
 45 46  2  0  0  0  0
 45123  1  0  0  0  0
 46 47  1  0  0  0  0
 46 48  1  0  0  0  0
 47124  1  0  0  0  0
 48 49  1  0  0  0  0
 48 60  2  0  0  0  0
 49 50  1  0  0  0  0
 49 58  2  0  0  0  0
 50 51  1  0  0  0  0
 50 52  2  0  0  0  0
 52 53  1  0  0  0  0
 52 54  1  0  0  0  0
 54 55  1  0  0  0  0
 54 56  2  0  0  0  0
 56 57  1  0  0  0  0
 56 58  1  0  0  0  0
 58 59  1  0  0  0  0
 60 61  1  0  0  0  0
 60 81  1  0  0  0  0
 61 62  2  0  0  0  0
 62 63  1  0  0  0  0
 62 80  1  0  0  0  0
 63 64  1  0  0  0  0
 63 75  2  0  0  0  0
 64 65  1  0  0  0  0
 64 73  2  0  0  0  0
 65 66  1  0  0  0  0
 65 67  2  0  0  0  0
 67 68  1  0  0  0  0
 67 69  1  0  0  0  0
 69 70  1  0  0  0  0
 69 71  2  0  0  0  0
 71 72  1  0  0  0  0
 71 73  1  0  0  0  0
 73 74  1  0  0  0  0
 75 76  1  0  0  0  0
 75 79  1  0  0  0  0
 76 77  2  0  0  0  0
 76125  1  0  0  0  0
 77 78  1  0  0  0  0
 77126  1  0  0  0  0
 78 79  1  0  0  0  0
 79127  1  0  0  0  0
 80 81  2  0  0  0  0
 80128  1  0  0  0  0
 81129  1  0  0  0  0
 82 83  2  0  0  0  0
 82130  1  0  0  0  0
 83131  1  0  0  0  0
 84 85  1  0  0  0  0
 84132  1  0  0  0  0
 85133  1  0  0  0  0
 86 87  1  0  0  0  0
 86 88  1  0  0  0  0
 87134  1  0  0  0  0
 87135  1  0  0  0  0
 87136  1  0  0  0  0
 88 89  1  0  0  0  0
 89 90  2  0  0  0  0
 89 91  1  0  0  0  0
 91 92  1  0  0  0  0
 91 97  2  0  0  0  0
 92 93  2  0  0  0  0
 92137  1  0  0  0  0
 93 94  1  0  0  0  0
 93138  1  0  0  0  0
 94 95  1  0  0  0  0
 94 96  2  0  0  0  0
 96 97  1  0  0  0  0
 96139  1  0  0  0  0
 97140  1  0  0  0  0
M  END
$$$$
