ligands/7-CHEMBL571
 OpenBabel10182222423D

132142  0  0  0  0  0  0  0  0999 V2000
    0.8497    0.2898   -0.2122 C   0  0  0  0  0  0  0  0  0  0  0  0
    0.4589   -0.5482    1.0072 C   0  0  1  0  0  0  0  0  0  0  0  0
    1.0730   -0.0322    2.3213 C   0  0  0  0  0  0  0  0  0  0  0  0
    0.4179    0.5187    3.2081 O   0  0  0  0  0  0  0  0  0  0  0  0
    2.3980   -0.2195    2.5768 N   0  0  0  0  0  0  0  0  0  0  0  0
    3.4695   -0.6266    1.6949 C   0  0  0  0  0  0  0  0  0  0  0  0
    4.2960    0.5905    1.2737 C   0  0  0  0  0  0  0  0  0  0  0  0
    5.0461    1.2651    2.4319 C   0  0  0  0  0  0  0  0  0  0  0  0
    6.0221    0.3571    3.1869 C   0  0  0  0  0  0  0  0  0  0  0  0
    7.0711   -0.3261    2.3080 C   0  0  0  0  0  0  0  0  0  0  0  0
    7.9607    0.6360    1.5273 C   0  0  0  0  0  0  0  0  0  0  0  0
    8.7924    1.4455    2.4051 N   0  0  0  0  0  0  0  0  0  0  0  0
   10.1592    1.5636    2.4407 C   0  0  0  0  0  0  0  0  0  0  0  0
   10.7111    2.1330    3.3781 O   0  0  0  0  0  0  0  0  0  0  0  0
   10.9710    0.9756    1.3557 C   0  0  0  0  0  0  0  0  0  0  0  0
   12.0814    0.1960    1.6870 C   0  0  0  0  0  0  0  0  0  0  0  0
   12.7940   -0.4542    0.6775 C   0  0  0  0  0  0  0  0  0  0  0  0
   12.3736   -0.3612   -0.6596 C   0  0  0  0  0  0  0  0  0  0  0  0
   13.0174   -1.1665   -1.7291 C   0  0  0  0  0  0  0  0  0  0  0  0
   13.7282   -0.4897   -2.8665 C   0  0  0  0  0  0  0  0  0  0  0  0
   14.2526   -1.0175   -3.9436 N   0  0  0  0  0  0  0  0  0  0  0  0
   14.7412    0.0478   -4.6879 C   0  0  0  0  0  0  0  0  0  0  0  0
   15.4067    0.0144   -5.8665 C   0  0  0  0  0  0  0  0  0  0  0  0
   15.8097    1.3183   -6.4909 C   0  0  0  0  0  0  0  0  0  0  0  0
   16.8348    2.1105   -5.9544 C   0  0  0  0  0  0  0  0  0  0  0  0
   17.4261    1.7608   -4.8022 F   0  0  0  0  0  0  0  0  0  0  0  0
   17.2453    3.2784   -6.5927 C   0  0  0  0  0  0  0  0  0  0  0  0
   18.2062    4.0362   -6.0462 F   0  0  0  0  0  0  0  0  0  0  0  0
   16.6624    3.6592   -7.7924 C   0  0  0  0  0  0  0  0  0  0  0  0
   17.0738    4.7719   -8.4158 F   0  0  0  0  0  0  0  0  0  0  0  0
   15.6530    2.8866   -8.3454 C   0  0  0  0  0  0  0  0  0  0  0  0
   15.0995    3.2433   -9.5128 F   0  0  0  0  0  0  0  0  0  0  0  0
   15.2202    1.7346   -7.6951 C   0  0  0  0  0  0  0  0  0  0  0  0
   14.2398    1.0091   -8.2544 F   0  0  0  0  0  0  0  0  0  0  0  0
   15.7504   -1.1946   -6.5685 C   0  0  0  0  0  0  0  0  0  0  0  0
   16.5131   -1.3353   -7.7147 C   0  0  0  0  0  0  0  0  0  0  0  0
   16.5076   -2.6841   -8.0798 C   0  0  0  0  0  0  0  0  0  0  0  0
   15.7950   -3.3931   -7.1266 C   0  0  0  0  0  0  0  0  0  0  0  0
   15.3426   -2.4674   -6.1999 N   0  0  0  0  0  0  0  0  0  0  0  0
   15.5345   -4.8082   -7.0715 C   0  0  0  0  0  0  0  0  0  0  0  0
   16.0377   -5.6537   -8.2053 C   0  0  0  0  0  0  0  0  0  0  0  0
   15.1610   -6.2191   -9.1426 C   0  0  0  0  0  0  0  0  0  0  0  0
   13.8347   -6.0764   -8.9985 F   0  0  0  0  0  0  0  0  0  0  0  0
   15.6440   -6.9616  -10.2167 C   0  0  0  0  0  0  0  0  0  0  0  0
   14.7860   -7.5268  -11.0772 F   0  0  0  0  0  0  0  0  0  0  0  0
   17.0101   -7.1237  -10.3933 C   0  0  0  0  0  0  0  0  0  0  0  0
   17.4734   -7.8241  -11.4376 F   0  0  0  0  0  0  0  0  0  0  0  0
   17.8955   -6.5634   -9.4853 C   0  0  0  0  0  0  0  0  0  0  0  0
   19.2162   -6.7046   -9.6633 F   0  0  0  0  0  0  0  0  0  0  0  0
   17.4148   -5.8484   -8.3923 C   0  0  0  0  0  0  0  0  0  0  0  0
   18.2958   -5.3237   -7.5273 F   0  0  0  0  0  0  0  0  0  0  0  0
   14.8781   -5.4358   -6.0658 C   0  0  0  0  0  0  0  0  0  0  0  0
   14.3244   -4.8949   -4.9133 N   0  0  0  0  0  0  0  0  0  0  0  0
   13.7769   -5.8979   -4.2713 C   0  0  0  0  0  0  0  0  0  0  0  0
   13.0493   -5.8982   -2.9526 C   0  0  0  0  0  0  0  0  0  0  0  0
   12.4779   -7.1578   -2.4034 C   0  0  0  0  0  0  0  0  0  0  0  0
   13.3065   -8.2127   -1.9959 C   0  0  0  0  0  0  0  0  0  0  0  0
   14.6391   -8.0898   -2.0858 F   0  0  0  0  0  0  0  0  0  0  0  0
   12.7708   -9.4190   -1.5485 C   0  0  0  0  0  0  0  0  0  0  0  0
   13.5859  -10.4328   -1.2272 F   0  0  0  0  0  0  0  0  0  0  0  0
   11.3964   -9.5807   -1.4605 C   0  0  0  0  0  0  0  0  0  0  0  0
   10.8815  -10.7416   -1.0336 F   0  0  0  0  0  0  0  0  0  0  0  0
   10.5565   -8.5408   -1.8275 C   0  0  0  0  0  0  0  0  0  0  0  0
    9.2280   -8.6853   -1.7281 F   0  0  0  0  0  0  0  0  0  0  0  0
   11.0906   -7.3476   -2.3091 C   0  0  0  0  0  0  0  0  0  0  0  0
   10.2507   -6.3700   -2.6806 F   0  0  0  0  0  0  0  0  0  0  0  0
   12.9001   -4.7368   -2.2862 C   0  0  0  0  0  0  0  0  0  0  0  0
   12.2076   -4.5786   -1.0115 C   0  0  0  0  0  0  0  0  0  0  0  0
   12.1666   -3.2751   -0.6943 C   0  0  0  0  0  0  0  0  0  0  0  0
   12.8757   -2.5074   -1.7201 C   0  0  0  0  0  0  0  0  0  0  0  0
   13.2984   -3.4622   -2.6127 N   0  0  0  0  0  0  0  0  0  0  0  0
   13.9055   -7.1900   -4.9608 C   0  0  0  0  0  0  0  0  0  0  0  0
   14.6221   -6.8593   -6.0253 C   0  0  0  0  0  0  0  0  0  0  0  0
   14.4219    1.2561   -3.9592 C   0  0  0  0  0  0  0  0  0  0  0  0
   13.8452    0.9755   -2.7987 C   0  0  0  0  0  0  0  0  0  0  0  0
   11.2910    0.4725   -0.9816 C   0  0  0  0  0  0  0  0  0  0  0  0
   10.6230    1.1756    0.0169 C   0  0  0  0  0  0  0  0  0  0  0  0
   -1.0604   -0.6604    1.1088 C   0  0  0  0  0  0  0  0  0  0  0  0
   -1.8677    0.4832    1.2198 C   0  0  0  0  0  0  0  0  0  0  0  0
   -3.2485    0.3704    1.3662 C   0  0  0  0  0  0  0  0  0  0  0  0
   -3.8416   -0.8894    1.4161 C   0  0  0  0  0  0  0  0  0  0  0  0
   -3.0582   -2.0455    1.3125 C   0  0  0  0  0  0  0  0  0  0  0  0
   -3.7477   -3.3669    1.3553 C   0  0  0  0  0  0  0  0  0  0  0  0
   -4.9695   -3.4302    1.2422 O   0  0  0  0  0  0  0  0  0  0  0  0
   -2.9933   -4.6332    1.4802 C   0  0  0  0  0  0  0  0  0  0  0  0
   -3.2578   -5.6491    0.5563 C   0  0  0  0  0  0  0  0  0  0  0  0
   -2.5458   -6.8461    0.6188 C   0  0  0  0  0  0  0  0  0  0  0  0
   -1.5820   -7.0322    1.6106 C   0  0  0  0  0  0  0  0  0  0  0  0
   -1.3396   -6.0302    2.5523 C   0  0  0  0  0  0  0  0  0  0  0  0
   -2.0519   -4.8309    2.4965 C   0  0  0  0  0  0  0  0  0  0  0  0
   -1.6721   -1.9240    1.1358 C   0  0  0  0  0  0  0  0  0  0  0  0
    1.9158    0.3595   -0.2702 H   0  0  0  0  0  0  0  0  0  0  0  0
    0.4326    1.2708   -0.1193 H   0  0  0  0  0  0  0  0  0  0  0  0
    0.4739   -0.1750   -1.0997 H   0  0  0  0  0  0  0  0  0  0  0  0
    0.8702   -1.5247    0.8584 H   0  0  0  0  0  0  0  0  0  0  0  0
    2.6687   -0.0513    3.5083 H   0  0  0  0  0  0  0  0  0  0  0  0
    3.0545   -1.0907    0.8247 H   0  0  0  0  0  0  0  0  0  0  0  0
    4.1028   -1.3184    2.2099 H   0  0  0  0  0  0  0  0  0  0  0  0
    3.6366    1.3100    0.8351 H   0  0  0  0  0  0  0  0  0  0  0  0
    5.0372    0.2395    0.5865 H   0  0  0  0  0  0  0  0  0  0  0  0
    4.3212    1.6272    3.1307 H   0  0  0  0  0  0  0  0  0  0  0  0
    5.6378    2.0412    1.9933 H   0  0  0  0  0  0  0  0  0  0  0  0
    5.4549   -0.4038    3.6811 H   0  0  0  0  0  0  0  0  0  0  0  0
    6.5598    0.9882    3.8633 H   0  0  0  0  0  0  0  0  0  0  0  0
    6.5627   -0.9553    1.6076 H   0  0  0  0  0  0  0  0  0  0  0  0
    7.7143   -0.8710    2.9670 H   0  0  0  0  0  0  0  0  0  0  0  0
    7.3401    1.2846    0.9449 H   0  0  0  0  0  0  0  0  0  0  0  0
    8.6073    0.0550    0.9035 H   0  0  0  0  0  0  0  0  0  0  0  0
    8.3049    1.9857    3.0682 H   0  0  0  0  0  0  0  0  0  0  0  0
   12.3735    0.1010    2.6722 H   0  0  0  0  0  0  0  0  0  0  0  0
   13.6334   -1.0056    0.9148 H   0  0  0  0  0  0  0  0  0  0  0  0
   17.0015   -0.5753   -8.2136 H   0  0  0  0  0  0  0  0  0  0  0  0
   16.9581   -3.0843   -8.9176 H   0  0  0  0  0  0  0  0  0  0  0  0
   14.8110   -2.6816   -5.3994 H   0  0  0  0  0  0  0  0  0  0  0  0
   11.8129   -5.3456   -0.4450 H   0  0  0  0  0  0  0  0  0  0  0  0
   11.7081   -2.8770    0.1401 H   0  0  0  0  0  0  0  0  0  0  0  0
   13.8358   -3.2534   -3.4108 H   0  0  0  0  0  0  0  0  0  0  0  0
   13.5346   -8.1134   -4.6872 H   0  0  0  0  0  0  0  0  0  0  0  0
   14.9549   -7.5310   -6.7346 H   0  0  0  0  0  0  0  0  0  0  0  0
   14.6173    2.2111   -4.2981 H   0  0  0  0  0  0  0  0  0  0  0  0
   13.5543    1.6173   -2.0447 H   0  0  0  0  0  0  0  0  0  0  0  0
   10.9887    0.5646   -1.9640 H   0  0  0  0  0  0  0  0  0  0  0  0
    9.8743    1.8415   -0.2302 H   0  0  0  0  0  0  0  0  0  0  0  0
   -1.4328    1.4187    1.1926 H   0  0  0  0  0  0  0  0  0  0  0  0
   -3.8314    1.2190    1.4376 H   0  0  0  0  0  0  0  0  0  0  0  0
   -4.8640   -0.9710    1.5301 H   0  0  0  0  0  0  0  0  0  0  0  0
   -3.9783   -5.5131   -0.1700 H   0  0  0  0  0  0  0  0  0  0  0  0
   -2.7314   -7.5939   -0.0678 H   0  0  0  0  0  0  0  0  0  0  0  0
   -1.0465   -7.9136    1.6482 H   0  0  0  0  0  0  0  0  0  0  0  0
   -0.6332   -6.1763    3.2903 H   0  0  0  0  0  0  0  0  0  0  0  0
   -1.8853   -4.0948    3.2003 H   0  0  0  0  0  0  0  0  0  0  0  0
   -1.0955   -2.7726    1.0244 H   0  0  0  0  0  0  0  0  0  0  0  0
  1  2  1  0  0  0  0
  1 92  1  0  0  0  0
  1 93  1  0  0  0  0
  1 94  1  0  0  0  0
  2  3  1  0  0  0  0
  2 78  1  0  0  0  0
  2 95  1  6  0  0  0
  3  4  2  0  0  0  0
  3  5  1  0  0  0  0
  5  6  1  0  0  0  0
  5 96  1  0  0  0  0
  6  7  1  0  0  0  0
  6 97  1  0  0  0  0
  6 98  1  0  0  0  0
  7  8  1  0  0  0  0
  7 99  1  0  0  0  0
  7100  1  0  0  0  0
  8  9  1  0  0  0  0
  8101  1  0  0  0  0
  8102  1  0  0  0  0
  9 10  1  0  0  0  0
  9103  1  0  0  0  0
  9104  1  0  0  0  0
 10 11  1  0  0  0  0
 10105  1  0  0  0  0
 10106  1  0  0  0  0
 11 12  1  0  0  0  0
 11107  1  0  0  0  0
 11108  1  0  0  0  0
 12 13  1  0  0  0  0
 12109  1  0  0  0  0
 13 14  2  0  0  0  0
 13 15  1  0  0  0  0
 15 16  1  0  0  0  0
 15 77  2  0  0  0  0
 16 17  2  0  0  0  0
 16110  1  0  0  0  0
 17 18  1  0  0  0  0
 17111  1  0  0  0  0
 18 19  1  0  0  0  0
 18 76  2  0  0  0  0
 19 20  1  0  0  0  0
 19 70  2  0  0  0  0
 20 21  2  0  0  0  0
 20 75  1  0  0  0  0
 21 22  1  0  0  0  0
 22 23  2  0  0  0  0
 22 74  1  0  0  0  0
 23 24  1  0  0  0  0
 23 35  1  0  0  0  0
 24 25  1  0  0  0  0
 24 33  2  0  0  0  0
 25 26  1  0  0  0  0
 25 27  2  0  0  0  0
 27 28  1  0  0  0  0
 27 29  1  0  0  0  0
 29 30  1  0  0  0  0
 29 31  2  0  0  0  0
 31 32  1  0  0  0  0
 31 33  1  0  0  0  0
 33 34  1  0  0  0  0
 35 36  2  0  0  0  0
 35 39  1  0  0  0  0
 36 37  1  0  0  0  0
 36112  1  0  0  0  0
 37 38  2  0  0  0  0
 37113  1  0  0  0  0
 38 39  1  0  0  0  0
 38 40  1  0  0  0  0
 39114  1  0  0  0  0
 40 41  1  0  0  0  0
 40 52  2  0  0  0  0
 41 42  1  0  0  0  0
 41 50  2  0  0  0  0
 42 43  1  0  0  0  0
 42 44  2  0  0  0  0
 44 45  1  0  0  0  0
 44 46  1  0  0  0  0
 46 47  1  0  0  0  0
 46 48  2  0  0  0  0
 48 49  1  0  0  0  0
 48 50  1  0  0  0  0
 50 51  1  0  0  0  0
 52 53  1  0  0  0  0
 52 73  1  0  0  0  0
 53 54  2  0  0  0  0
 54 55  1  0  0  0  0
 54 72  1  0  0  0  0
 55 56  1  0  0  0  0
 55 67  2  0  0  0  0
 56 57  1  0  0  0  0
 56 65  2  0  0  0  0
 57 58  1  0  0  0  0
 57 59  2  0  0  0  0
 59 60  1  0  0  0  0
 59 61  1  0  0  0  0
 61 62  1  0  0  0  0
 61 63  2  0  0  0  0
 63 64  1  0  0  0  0
 63 65  1  0  0  0  0
 65 66  1  0  0  0  0
 67 68  1  0  0  0  0
 67 71  1  0  0  0  0
 68 69  2  0  0  0  0
 68115  1  0  0  0  0
 69 70  1  0  0  0  0
 69116  1  0  0  0  0
 70 71  1  0  0  0  0
 71117  1  0  0  0  0
 72 73  2  0  0  0  0
 72118  1  0  0  0  0
 73119  1  0  0  0  0
 74 75  2  0  0  0  0
 74120  1  0  0  0  0
 75121  1  0  0  0  0
 76 77  1  0  0  0  0
 76122  1  0  0  0  0
 77123  1  0  0  0  0
 78 79  1  0  0  0  0
 78 91  2  0  0  0  0
 79 80  2  0  0  0  0
 79124  1  0  0  0  0
 80 81  1  0  0  0  0
 80125  1  0  0  0  0
 81 82  2  0  0  0  0
 81126  1  0  0  0  0
 82 83  1  0  0  0  0
 82 91  1  0  0  0  0
 83 84  2  0  0  0  0
 83 85  1  0  0  0  0
 85 86  1  0  0  0  0
 85 90  2  0  0  0  0
 86 87  2  0  0  0  0
 86127  1  0  0  0  0
 87 88  1  0  0  0  0
 87128  1  0  0  0  0
 88 89  2  0  0  0  0
 88129  1  0  0  0  0
 89 90  1  0  0  0  0
 89130  1  0  0  0  0
 90131  1  0  0  0  0
 91132  1  0  0  0  0
M  END
$$$$
