1_1_2543
 OpenBabel01102313203D

136147  0  0  1  0  0  0  0  0999 V2000
   12.0806  -15.5115   -6.5730 O   0  0  0  0  0  0  0  0  0  0  0  0
   11.7486  -15.3068   -5.4134 C   0  0  0  0  0  0  0  0  0  0  0  0
   11.4107  -14.0381   -4.9992 N   0  0  0  0  0  0  0  0  0  0  0  0
   11.0619  -13.5723   -3.6695 C   0  0  0  0  0  0  0  0  0  0  0  0
   11.7013  -12.2416   -3.2920 C   0  0  0  0  0  0  0  0  0  0  0  0
   11.3374  -11.0443   -4.1697 C   0  0  0  0  0  0  0  0  0  0  0  0
    9.8449  -10.8132   -4.4282 C   0  0  0  0  0  0  0  0  0  0  0  0
    8.9285  -10.7507   -3.1981 C   0  0  0  0  0  0  0  0  0  0  0  0
    9.2835   -9.6843   -2.1654 C   0  0  0  0  0  0  0  0  0  0  0  0
    9.1204   -8.3363   -2.6623 N   0  0  0  0  0  0  0  0  0  0  0  0
    9.0880   -7.1290   -2.0361 C   0  0  0  0  0  0  0  0  0  0  0  0
    8.9806   -6.1569   -2.7946 O   0  0  0  0  0  0  0  0  0  0  0  0
    9.1257   -6.9316   -0.4929 C   0  0  1  0  0  0  0  0  0  0  0  0
    9.8070   -7.9503    0.4016 C   0  0  0  0  0  0  0  0  0  0  0  0
   10.9284   -7.2292    1.1586 C   0  0  2  0  0  0  0  0  0  0  0  0
   12.1481   -7.9713    0.9210 O   0  0  0  0  0  0  0  0  0  0  0  0
   10.6690   -7.3696    2.6732 C   0  0  0  0  0  0  0  0  0  0  0  0
   10.8331   -8.6853    3.1988 C   0  0  0  0  0  0  0  0  0  0  0  0
   10.6541   -8.9948    4.5484 C   0  0  0  0  0  0  0  0  0  0  0  0
   10.3161   -7.9920    5.4389 C   0  0  0  0  0  0  0  0  0  0  0  0
   10.1221   -6.6989    4.9631 C   0  0  0  0  0  0  0  0  0  0  0  0
   10.2646   -6.3874    3.5959 C   0  0  0  0  0  0  0  0  0  0  0  0
    9.8279   -4.7658    3.2060 Cl  0  0  0  0  0  0  0  0  0  0  0  0
   11.0045   -5.8568    0.4390 C   0  0  1  0  0  0  0  0  0  0  0  0
   12.1145   -5.6099   -0.5877 C   0  0  0  0  0  0  0  0  0  0  0  0
   12.2737   -6.4544   -1.7039 C   0  0  0  0  0  0  0  0  0  0  0  0
   13.2026   -6.1793   -2.7117 C   0  0  0  0  0  0  0  0  0  0  0  0
   14.0245   -5.0652   -2.6147 C   0  0  0  0  0  0  0  0  0  0  0  0
   13.9296   -4.2409   -1.4979 C   0  0  0  0  0  0  0  0  0  0  0  0
   12.9890   -4.5077   -0.4927 C   0  0  0  0  0  0  0  0  0  0  0  0
   13.0010   -3.4287    0.8619 Cl  0  0  0  0  0  0  0  0  0  0  0  0
    9.7249   -5.6589   -0.1926 O   0  0  0  0  0  0  0  0  0  0  0  0
   11.7539  -16.4230   -4.4388 C   0  0  0  0  0  0  0  0  0  0  0  0
   10.6957  -16.6134   -3.5475 C   0  0  0  0  0  0  0  0  0  0  0  0
   10.8004  -17.5724   -2.5438 C   0  0  0  0  0  0  0  0  0  0  0  0
   11.9125  -18.4286   -2.4883 C   0  0  0  0  0  0  0  0  0  0  0  0
   11.9856  -19.4698   -1.4317 C   0  0  0  0  0  0  0  0  0  0  0  0
   13.0429  -19.4200   -0.3644 C   0  0  0  0  0  0  0  0  0  0  0  0
   13.2386  -20.2339    0.6439 N   0  0  0  0  0  0  0  0  0  0  0  0
   14.3635  -19.7589    1.3054 C   0  0  0  0  0  0  0  0  0  0  0  0
   14.9536  -20.2439    2.4253 C   0  0  0  0  0  0  0  0  0  0  0  0
   16.1936  -19.5496    2.9123 C   0  0  0  0  0  0  0  0  0  0  0  0
   16.1471  -18.2748    3.4962 C   0  0  0  0  0  0  0  0  0  0  0  0
   14.9798  -17.6216    3.5997 F   0  0  0  0  0  0  0  0  0  0  0  0
   17.3087  -17.6468    3.9405 C   0  0  0  0  0  0  0  0  0  0  0  0
   17.2458  -16.4085    4.4498 F   0  0  0  0  0  0  0  0  0  0  0  0
   18.5319  -18.2928    3.8419 C   0  0  0  0  0  0  0  0  0  0  0  0
   19.6478  -17.6875    4.2715 F   0  0  0  0  0  0  0  0  0  0  0  0
   18.5986  -19.5629    3.2901 C   0  0  0  0  0  0  0  0  0  0  0  0
   19.7780  -20.1939    3.2050 F   0  0  0  0  0  0  0  0  0  0  0  0
   17.4432  -20.1822    2.8198 C   0  0  0  0  0  0  0  0  0  0  0  0
   17.5436  -21.4050    2.2776 F   0  0  0  0  0  0  0  0  0  0  0  0
   14.4821  -21.3890    3.1625 C   0  0  0  0  0  0  0  0  0  0  0  0
   14.9835  -21.9290    4.3347 C   0  0  0  0  0  0  0  0  0  0  0  0
   14.2336  -23.0681    4.6497 C   0  0  0  0  0  0  0  0  0  0  0  0
   13.2337  -23.2106    3.7012 C   0  0  0  0  0  0  0  0  0  0  0  0
   13.4004  -22.1761    2.7931 N   0  0  0  0  0  0  0  0  0  0  0  0
   12.2042  -24.2163    3.6263 C   0  0  0  0  0  0  0  0  0  0  0  0
   12.1633  -25.2622    4.7012 C   0  0  0  0  0  0  0  0  0  0  0  0
   12.5331  -26.5914    4.4494 C   0  0  0  0  0  0  0  0  0  0  0  0
   12.8995  -26.9677    3.2149 F   0  0  0  0  0  0  0  0  0  0  0  0
   12.4848  -27.5500    5.4582 C   0  0  0  0  0  0  0  0  0  0  0  0
   12.7952  -28.8246    5.1841 F   0  0  0  0  0  0  0  0  0  0  0  0
   12.0987  -27.1920    6.7415 C   0  0  0  0  0  0  0  0  0  0  0  0
   12.0546  -28.1156    7.7115 F   0  0  0  0  0  0  0  0  0  0  0  0
   11.7488  -25.8788    7.0169 C   0  0  0  0  0  0  0  0  0  0  0  0
   11.3849  -25.5290    8.2584 F   0  0  0  0  0  0  0  0  0  0  0  0
   11.7695  -24.9239    6.0045 C   0  0  0  0  0  0  0  0  0  0  0  0
   11.4100  -23.6650    6.2971 F   0  0  0  0  0  0  0  0  0  0  0  0
   11.2454  -24.2786    2.6701 C   0  0  0  0  0  0  0  0  0  0  0  0
   11.0353  -23.4316    1.5918 N   0  0  0  0  0  0  0  0  0  0  0  0
    9.9979  -23.9136    0.9528 C   0  0  0  0  0  0  0  0  0  0  0  0
    9.3156  -23.3887   -0.2769 C   0  0  0  0  0  0  0  0  0  0  0  0
    8.1045  -24.0473   -0.8265 C   0  0  0  0  0  0  0  0  0  0  0  0
    6.8809  -23.9786   -0.1477 C   0  0  0  0  0  0  0  0  0  0  0  0
    6.8070  -23.3555    1.0377 F   0  0  0  0  0  0  0  0  0  0  0  0
    5.7341  -24.5688   -0.6736 C   0  0  0  0  0  0  0  0  0  0  0  0
    4.5821  -24.5130    0.0083 F   0  0  0  0  0  0  0  0  0  0  0  0
    5.7844  -25.2173   -1.8987 C   0  0  0  0  0  0  0  0  0  0  0  0
    4.6775  -25.7719   -2.4110 F   0  0  0  0  0  0  0  0  0  0  0  0
    6.9835  -25.2922   -2.5912 C   0  0  0  0  0  0  0  0  0  0  0  0
    7.0327  -25.9029   -3.7827 F   0  0  0  0  0  0  0  0  0  0  0  0
    8.1363  -24.7254   -2.0537 C   0  0  0  0  0  0  0  0  0  0  0  0
    9.2833  -24.8124   -2.7431 F   0  0  0  0  0  0  0  0  0  0  0  0
    9.8012  -22.2874   -0.8783 C   0  0  0  0  0  0  0  0  0  0  0  0
    9.2447  -21.6686   -2.0768 C   0  0  0  0  0  0  0  0  0  0  0  0
   10.0051  -20.6183   -2.4176 C   0  0  0  0  0  0  0  0  0  0  0  0
   11.0717  -20.4583   -1.4283 C   0  0  0  0  0  0  0  0  0  0  0  0
   10.8818  -21.5030   -0.5607 N   0  0  0  0  0  0  0  0  0  0  0  0
    9.4417  -25.1381    1.5428 C   0  0  0  0  0  0  0  0  0  0  0  0
   10.2170  -25.2976    2.6063 C   0  0  0  0  0  0  0  0  0  0  0  0
   14.8225  -18.5980    0.5719 C   0  0  0  0  0  0  0  0  0  0  0  0
   14.0135  -18.3184   -0.4409 C   0  0  0  0  0  0  0  0  0  0  0  0
   12.9192  -18.3036   -3.4576 C   0  0  0  0  0  0  0  0  0  0  0  0
   12.8510  -17.2898   -4.4174 C   0  0  0  0  0  0  0  0  0  0  0  0
   11.4048  -13.3504   -5.7037 H   0  0  0  0  0  0  0  0  0  0  0  0
   11.3767  -14.3099   -2.9612 H   0  0  0  0  0  0  0  0  0  0  0  0
   10.0028  -13.4202   -3.6624 H   0  0  0  0  0  0  0  0  0  0  0  0
   12.7632  -12.3662   -3.3340 H   0  0  0  0  0  0  0  0  0  0  0  0
   11.3230  -12.0083   -2.3187 H   0  0  0  0  0  0  0  0  0  0  0  0
   11.8142  -11.1798   -5.1180 H   0  0  0  0  0  0  0  0  0  0  0  0
   11.6665  -10.1841   -3.6250 H   0  0  0  0  0  0  0  0  0  0  0  0
    9.4972  -11.6114   -5.0501 H   0  0  0  0  0  0  0  0  0  0  0  0
    9.7857   -9.8404   -4.8699 H   0  0  0  0  0  0  0  0  0  0  0  0
    8.9634  -11.7036   -2.7127 H   0  0  0  0  0  0  0  0  0  0  0  0
    7.9591  -10.4891   -3.5680 H   0  0  0  0  0  0  0  0  0  0  0  0
   10.3044   -9.8187   -1.8744 H   0  0  0  0  0  0  0  0  0  0  0  0
    8.6125   -9.8034   -1.3405 H   0  0  0  0  0  0  0  0  0  0  0  0
    9.0123   -8.2818   -3.6393 H   0  0  0  0  0  0  0  0  0  0  0  0
    8.0881   -7.0383   -0.2545 H   0  0  0  0  0  0  0  0  0  0  0  0
   10.2174   -8.7401   -0.1922 H   0  0  0  0  0  0  0  0  0  0  0  0
    9.1048   -8.3758    1.0878 H   0  0  0  0  0  0  0  0  0  0  0  0
   12.3754   -7.9267   -0.0209 H   0  0  0  0  0  0  0  0  0  0  0  0
   11.0966   -9.4442    2.5510 H   0  0  0  0  0  0  0  0  0  0  0  0
   10.7732   -9.9651    4.8792 H   0  0  0  0  0  0  0  0  0  0  0  0
   10.2091   -8.2003    6.4440 H   0  0  0  0  0  0  0  0  0  0  0  0
    9.8680   -5.9505    5.6267 H   0  0  0  0  0  0  0  0  0  0  0  0
   11.2583   -5.1576    1.2082 H   0  0  0  0  0  0  0  0  0  0  0  0
   11.6877   -7.3005   -1.7798 H   0  0  0  0  0  0  0  0  0  0  0  0
   13.2773   -6.8053   -3.5287 H   0  0  0  0  0  0  0  0  0  0  0  0
   14.7002   -4.8501   -3.3645 H   0  0  0  0  0  0  0  0  0  0  0  0
   14.5568   -3.4262   -1.4085 H   0  0  0  0  0  0  0  0  0  0  0  0
    9.8387  -16.0449   -3.6327 H   0  0  0  0  0  0  0  0  0  0  0  0
   10.0550  -17.6549   -1.8349 H   0  0  0  0  0  0  0  0  0  0  0  0
   15.7745  -21.5556    4.8823 H   0  0  0  0  0  0  0  0  0  0  0  0
   14.3977  -23.6956    5.4525 H   0  0  0  0  0  0  0  0  0  0  0  0
   12.8345  -22.0225    2.0023 H   0  0  0  0  0  0  0  0  0  0  0  0
    8.4024  -21.9877   -2.5805 H   0  0  0  0  0  0  0  0  0  0  0  0
    9.8613  -20.0186   -3.2451 H   0  0  0  0  0  0  0  0  0  0  0  0
   11.4640  -21.6738    0.2146 H   0  0  0  0  0  0  0  0  0  0  0  0
    8.6550  -25.7206    1.2158 H   0  0  0  0  0  0  0  0  0  0  0  0
   10.1026  -26.0521    3.3010 H   0  0  0  0  0  0  0  0  0  0  0  0
   15.6699  -18.0579    0.8070 H   0  0  0  0  0  0  0  0  0  0  0  0
   14.0545  -17.5326   -1.1086 H   0  0  0  0  0  0  0  0  0  0  0  0
   13.7132  -18.9628   -3.4619 H   0  0  0  0  0  0  0  0  0  0  0  0
   13.6091  -17.1811   -5.1092 H   0  0  0  0  0  0  0  0  0  0  0  0
  1  2  2  0  0  0  0
  2  3  1  0  0  0  0
  2 33  1  0  0  0  0
  3  4  1  0  0  0  0
  3 96  1  0  0  0  0
  4  5  1  0  0  0  0
  4 97  1  0  0  0  0
  4 98  1  0  0  0  0
  5  6  1  0  0  0  0
  5 99  1  0  0  0  0
  5100  1  0  0  0  0
  6  7  1  0  0  0  0
  6101  1  0  0  0  0
  6102  1  0  0  0  0
  7  8  1  0  0  0  0
  7103  1  0  0  0  0
  7104  1  0  0  0  0
  8  9  1  0  0  0  0
  8105  1  0  0  0  0
  8106  1  0  0  0  0
  9 10  1  0  0  0  0
  9107  1  0  0  0  0
  9108  1  0  0  0  0
 10 11  1  0  0  0  0
 10109  1  0  0  0  0
 11 12  2  0  0  0  0
 13 14  1  0  0  0  0
 13 32  1  0  0  0  0
 13 11  1  0  0  0  0
 13110  1  1  0  0  0
 14 15  1  0  0  0  0
 14111  1  0  0  0  0
 14112  1  0  0  0  0
 15 24  1  0  0  0  0
 15 17  1  0  0  0  0
 15 16  1  6  0  0  0
 16113  1  0  0  0  0
 17 18  1  0  0  0  0
 17 22  2  0  0  0  0
 18 19  2  0  0  0  0
 18114  1  0  0  0  0
 19 20  1  0  0  0  0
 19115  1  0  0  0  0
 20 21  2  0  0  0  0
 20116  1  0  0  0  0
 21 22  1  0  0  0  0
 21117  1  0  0  0  0
 22 23  1  0  0  0  0
 24 32  1  0  0  0  0
 24 25  1  0  0  0  0
 24118  1  1  0  0  0
 25 26  1  0  0  0  0
 25 30  2  0  0  0  0
 26 27  2  0  0  0  0
 26119  1  0  0  0  0
 27 28  1  0  0  0  0
 27120  1  0  0  0  0
 28 29  2  0  0  0  0
 28121  1  0  0  0  0
 29 30  1  0  0  0  0
 29122  1  0  0  0  0
 30 31  1  0  0  0  0
 33 34  1  0  0  0  0
 33 95  2  0  0  0  0
 34 35  2  0  0  0  0
 34123  1  0  0  0  0
 35 36  1  0  0  0  0
 35124  1  0  0  0  0
 36 37  1  0  0  0  0
 36 94  2  0  0  0  0
 37 38  1  0  0  0  0
 37 88  2  0  0  0  0
 38 39  2  0  0  0  0
 38 93  1  0  0  0  0
 39 40  1  0  0  0  0
 40 41  2  0  0  0  0
 40 92  1  0  0  0  0
 41 42  1  0  0  0  0
 41 53  1  0  0  0  0
 42 43  1  0  0  0  0
 42 51  2  0  0  0  0
 43 44  1  0  0  0  0
 43 45  2  0  0  0  0
 45 46  1  0  0  0  0
 45 47  1  0  0  0  0
 47 48  1  0  0  0  0
 47 49  2  0  0  0  0
 49 50  1  0  0  0  0
 49 51  1  0  0  0  0
 51 52  1  0  0  0  0
 53 54  2  0  0  0  0
 53 57  1  0  0  0  0
 54 55  1  0  0  0  0
 54125  1  0  0  0  0
 55 56  2  0  0  0  0
 55126  1  0  0  0  0
 56 57  1  0  0  0  0
 56 58  1  0  0  0  0
 57127  1  0  0  0  0
 58 59  1  0  0  0  0
 58 70  2  0  0  0  0
 59 60  1  0  0  0  0
 59 68  2  0  0  0  0
 60 61  1  0  0  0  0
 60 62  2  0  0  0  0
 62 63  1  0  0  0  0
 62 64  1  0  0  0  0
 64 65  1  0  0  0  0
 64 66  2  0  0  0  0
 66 67  1  0  0  0  0
 66 68  1  0  0  0  0
 68 69  1  0  0  0  0
 70 71  1  0  0  0  0
 70 91  1  0  0  0  0
 71 72  2  0  0  0  0
 72 73  1  0  0  0  0
 72 90  1  0  0  0  0
 73 74  1  0  0  0  0
 73 85  2  0  0  0  0
 74 75  1  0  0  0  0
 74 83  2  0  0  0  0
 75 76  1  0  0  0  0
 75 77  2  0  0  0  0
 77 78  1  0  0  0  0
 77 79  1  0  0  0  0
 79 80  1  0  0  0  0
 79 81  2  0  0  0  0
 81 82  1  0  0  0  0
 81 83  1  0  0  0  0
 83 84  1  0  0  0  0
 85 86  1  0  0  0  0
 85 89  1  0  0  0  0
 86 87  2  0  0  0  0
 86128  1  0  0  0  0
 87 88  1  0  0  0  0
 87129  1  0  0  0  0
 88 89  1  0  0  0  0
 89130  1  0  0  0  0
 90 91  2  0  0  0  0
 90131  1  0  0  0  0
 91132  1  0  0  0  0
 92 93  2  0  0  0  0
 92133  1  0  0  0  0
 93134  1  0  0  0  0
 94 95  1  0  0  0  0
 94135  1  0  0  0  0
 95136  1  0  0  0  0
M  END
$$$$
