1_1_1446
 OpenBabel01102313193D

137147  0  0  0  0  0  0  0  0999 V2000
    1.1341    0.0059   -0.0119 C   0  0  0  0  0  0  0  0  0  0  0  0
    0.6783   -1.1211    0.8984 C   0  0  0  0  0  0  0  0  0  0  0  0
    0.9283   -0.7114    2.6572 S   0  0  0  0  0  0  0  0  0  0  0  0
    2.7048   -0.8258    2.7651 C   0  0  0  0  0  0  0  0  0  0  0  0
    3.3463   -2.0625    2.7186 C   0  0  0  0  0  0  0  0  0  0  0  0
    4.7295   -2.1311    2.8581 C   0  0  0  0  0  0  0  0  0  0  0  0
    5.4729   -0.9632    3.0526 C   0  0  0  0  0  0  0  0  0  0  0  0
    4.8605    0.3034    3.0960 C   0  0  0  0  0  0  0  0  0  0  0  0
    5.6541    1.5439    3.2805 C   0  0  0  0  0  0  0  0  0  0  0  0
    6.9663    1.6538    2.7936 C   0  0  0  0  0  0  0  0  0  0  0  0
    7.7209    2.8230    2.9569 C   0  0  0  0  0  0  0  0  0  0  0  0
    7.1730    3.9572    3.5596 C   0  0  0  0  0  0  0  0  0  0  0  0
    7.9103    5.2827    3.6744 C   0  0  1  0  0  0  0  0  0  0  0  0
    9.3818    5.2021    4.0825 C   0  0  0  0  0  0  0  0  0  0  0  0
    7.6359    6.2421    2.5067 C   0  0  0  0  0  0  0  0  0  0  0  0
    6.8898    7.2154    2.6701 O   0  0  0  0  0  0  0  0  0  0  0  0
    8.1847    6.1023    1.2692 N   0  0  0  0  0  0  0  0  0  0  0  0
    9.0094    5.0593    0.6985 C   0  0  0  0  0  0  0  0  0  0  0  0
    8.2000    4.1234   -0.2012 C   0  0  0  0  0  0  0  0  0  0  0  0
    8.1106    4.5858   -1.6594 C   0  0  0  0  0  0  0  0  0  0  0  0
    9.4471    4.6392   -2.4118 C   0  0  0  0  0  0  0  0  0  0  0  0
   10.2633    3.3424   -2.4064 C   0  0  0  0  0  0  0  0  0  0  0  0
    9.5571    2.1349   -3.0187 C   0  0  0  0  0  0  0  0  0  0  0  0
    9.2653    2.3327   -4.4295 N   0  0  0  0  0  0  0  0  0  0  0  0
    9.6712    1.6113   -5.5237 C   0  0  0  0  0  0  0  0  0  0  0  0
    9.5005    2.0602   -6.6527 O   0  0  0  0  0  0  0  0  0  0  0  0
   10.3241    0.2952   -5.3533 C   0  0  0  0  0  0  0  0  0  0  0  0
   11.4369   -0.0118   -6.1422 C   0  0  0  0  0  0  0  0  0  0  0  0
   12.0767   -1.2444   -5.9926 C   0  0  0  0  0  0  0  0  0  0  0  0
   11.6272   -2.1647   -5.0320 C   0  0  0  0  0  0  0  0  0  0  0  0
   12.3352   -3.4515   -4.8138 C   0  0  0  0  0  0  0  0  0  0  0  0
   11.6568   -4.7551   -5.1286 C   0  0  0  0  0  0  0  0  0  0  0  0
   12.0867   -5.9782   -4.9433 N   0  0  0  0  0  0  0  0  0  0  0  0
   11.0561   -6.8093   -5.3618 C   0  0  0  0  0  0  0  0  0  0  0  0
   11.0329   -8.1625   -5.4186 C   0  0  0  0  0  0  0  0  0  0  0  0
    9.7751   -8.8176   -5.9106 C   0  0  0  0  0  0  0  0  0  0  0  0
    9.3915   -8.7539   -7.2586 C   0  0  0  0  0  0  0  0  0  0  0  0
   10.1228   -8.0501   -8.1359 F   0  0  0  0  0  0  0  0  0  0  0  0
    8.2338   -9.3861   -7.7049 C   0  0  0  0  0  0  0  0  0  0  0  0
    7.8643   -9.2752   -8.9884 F   0  0  0  0  0  0  0  0  0  0  0  0
    7.4568  -10.1206   -6.8218 C   0  0  0  0  0  0  0  0  0  0  0  0
    6.3477  -10.7357   -7.2548 F   0  0  0  0  0  0  0  0  0  0  0  0
    7.8267  -10.2123   -5.4886 C   0  0  0  0  0  0  0  0  0  0  0  0
    7.0834  -10.9317   -4.6363 F   0  0  0  0  0  0  0  0  0  0  0  0
    8.9685   -9.5580   -5.0332 C   0  0  0  0  0  0  0  0  0  0  0  0
    9.2931   -9.6559   -3.7353 F   0  0  0  0  0  0  0  0  0  0  0  0
   12.1348   -9.0095   -5.0428 C   0  0  0  0  0  0  0  0  0  0  0  0
   12.2348  -10.3870   -5.1338 C   0  0  0  0  0  0  0  0  0  0  0  0
   13.4733  -10.7718   -4.6095 C   0  0  0  0  0  0  0  0  0  0  0  0
   14.1637   -9.6306   -4.2346 C   0  0  0  0  0  0  0  0  0  0  0  0
   13.3294   -8.5569   -4.5026 N   0  0  0  0  0  0  0  0  0  0  0  0
   15.4856   -9.5260   -3.6726 C   0  0  0  0  0  0  0  0  0  0  0  0
   16.2545  -10.7954   -3.4524 C   0  0  0  0  0  0  0  0  0  0  0  0
   16.4767  -11.3053   -2.1651 C   0  0  0  0  0  0  0  0  0  0  0  0
   16.0439  -10.6320   -1.0884 F   0  0  0  0  0  0  0  0  0  0  0  0
   17.1802  -12.4921   -1.9781 C   0  0  0  0  0  0  0  0  0  0  0  0
   17.4203  -12.9378   -0.7372 F   0  0  0  0  0  0  0  0  0  0  0  0
   17.6450  -13.2063   -3.0727 C   0  0  0  0  0  0  0  0  0  0  0  0
   18.3165  -14.3516   -2.8907 F   0  0  0  0  0  0  0  0  0  0  0  0
   17.4205  -12.7293   -4.3552 C   0  0  0  0  0  0  0  0  0  0  0  0
   17.8585  -13.4241   -5.4142 F   0  0  0  0  0  0  0  0  0  0  0  0
   16.7421  -11.5288   -4.5446 C   0  0  0  0  0  0  0  0  0  0  0  0
   16.5503  -11.0862   -5.7963 F   0  0  0  0  0  0  0  0  0  0  0  0
   16.1002   -8.3638   -3.3428 C   0  0  0  0  0  0  0  0  0  0  0  0
   15.6301   -7.0635   -3.4637 N   0  0  0  0  0  0  0  0  0  0  0  0
   16.5814   -6.2918   -2.9978 C   0  0  0  0  0  0  0  0  0  0  0  0
   16.6275   -4.7910   -2.9085 C   0  0  0  0  0  0  0  0  0  0  0  0
   17.8098   -4.0980   -2.3352 C   0  0  0  0  0  0  0  0  0  0  0  0
   19.0369   -4.0889   -3.0125 C   0  0  0  0  0  0  0  0  0  0  0  0
   19.1584   -4.7285   -4.1850 F   0  0  0  0  0  0  0  0  0  0  0  0
   20.1539   -3.4580   -2.4694 C   0  0  0  0  0  0  0  0  0  0  0  0
   21.3260   -3.5018   -3.1171 F   0  0  0  0  0  0  0  0  0  0  0  0
   20.0579   -2.7990   -1.2530 C   0  0  0  0  0  0  0  0  0  0  0  0
   21.1314   -2.1887   -0.7329 F   0  0  0  0  0  0  0  0  0  0  0  0
   18.8493   -2.7794   -0.5732 C   0  0  0  0  0  0  0  0  0  0  0  0
   18.7487   -2.1316    0.5955 F   0  0  0  0  0  0  0  0  0  0  0  0
   17.7388   -3.4332   -1.1026 C   0  0  0  0  0  0  0  0  0  0  0  0
   16.5858   -3.4079   -0.4181 F   0  0  0  0  0  0  0  0  0  0  0  0
   15.5893   -4.0717   -3.3753 C   0  0  0  0  0  0  0  0  0  0  0  0
   15.4982   -2.6148   -3.3688 C   0  0  0  0  0  0  0  0  0  0  0  0
   14.3093   -2.2482   -3.8732 C   0  0  0  0  0  0  0  0  0  0  0  0
   13.5669   -3.4458   -4.2689 C   0  0  0  0  0  0  0  0  0  0  0  0
   14.4063   -4.4809   -3.9402 N   0  0  0  0  0  0  0  0  0  0  0  0
   17.7576   -7.0212   -2.5035 C   0  0  0  0  0  0  0  0  0  0  0  0
   17.4289   -8.2766   -2.7737 C   0  0  0  0  0  0  0  0  0  0  0  0
    9.9624   -5.9539   -5.7696 C   0  0  0  0  0  0  0  0  0  0  0  0
   10.3053   -4.6753   -5.7038 C   0  0  0  0  0  0  0  0  0  0  0  0
   10.4941   -1.8552   -4.2643 C   0  0  0  0  0  0  0  0  0  0  0  0
    9.8196   -0.6510   -4.4567 C   0  0  0  0  0  0  0  0  0  0  0  0
    5.8673    3.8567    4.0595 C   0  0  0  0  0  0  0  0  0  0  0  0
    5.1333    2.6684    3.9406 C   0  0  0  0  0  0  0  0  0  0  0  0
    3.4601    0.3407    2.9490 C   0  0  0  0  0  0  0  0  0  0  0  0
    0.9715   -0.2719   -1.0323 H   0  0  0  0  0  0  0  0  0  0  0  0
    2.1760    0.1922    0.1454 H   0  0  0  0  0  0  0  0  0  0  0  0
    0.5760    0.8914    0.2099 H   0  0  0  0  0  0  0  0  0  0  0  0
    1.2376   -2.0029    0.6650 H   0  0  0  0  0  0  0  0  0  0  0  0
   -0.3681   -1.2766    0.7379 H   0  0  0  0  0  0  0  0  0  0  0  0
    2.7969   -2.9252    2.5811 H   0  0  0  0  0  0  0  0  0  0  0  0
    5.2068   -3.0452    2.8179 H   0  0  0  0  0  0  0  0  0  0  0  0
    6.4962   -1.0314    3.1672 H   0  0  0  0  0  0  0  0  0  0  0  0
    7.3871    0.8503    2.3013 H   0  0  0  0  0  0  0  0  0  0  0  0
    8.6982    2.8463    2.6261 H   0  0  0  0  0  0  0  0  0  0  0  0
    7.4591    5.7347    4.5329 H   0  0  0  0  0  0  0  0  0  0  0  0
    9.9479    4.7587    3.2902 H   0  0  0  0  0  0  0  0  0  0  0  0
    9.4749    4.6045    4.9651 H   0  0  0  0  0  0  0  0  0  0  0  0
    9.7522    6.1868    4.2777 H   0  0  0  0  0  0  0  0  0  0  0  0
    7.9849    6.8430    0.6522 H   0  0  0  0  0  0  0  0  0  0  0  0
    9.4431    4.4875    1.4921 H   0  0  0  0  0  0  0  0  0  0  0  0
    9.7660    5.5232    0.1008 H   0  0  0  0  0  0  0  0  0  0  0  0
    7.2071    4.0542    0.1915 H   0  0  0  0  0  0  0  0  0  0  0  0
    8.7074    3.1814   -0.2051 H   0  0  0  0  0  0  0  0  0  0  0  0
    7.6856    5.5677   -1.6697 H   0  0  0  0  0  0  0  0  0  0  0  0
    7.5140    3.8561   -2.1659 H   0  0  0  0  0  0  0  0  0  0  0  0
   10.0452    5.4063   -1.9660 H   0  0  0  0  0  0  0  0  0  0  0  0
    9.1987    4.8240   -3.4360 H   0  0  0  0  0  0  0  0  0  0  0  0
   10.5052    3.1063   -1.3912 H   0  0  0  0  0  0  0  0  0  0  0  0
   11.1236    3.5271   -3.0152 H   0  0  0  0  0  0  0  0  0  0  0  0
    8.6383    1.9700   -2.4956 H   0  0  0  0  0  0  0  0  0  0  0  0
   10.2090    1.2909   -2.9310 H   0  0  0  0  0  0  0  0  0  0  0  0
    8.6870    3.1036   -4.6306 H   0  0  0  0  0  0  0  0  0  0  0  0
   11.7848    0.6709   -6.8336 H   0  0  0  0  0  0  0  0  0  0  0  0
   12.8838   -1.4799   -6.5911 H   0  0  0  0  0  0  0  0  0  0  0  0
   11.5189  -11.0211   -5.5217 H   0  0  0  0  0  0  0  0  0  0  0  0
   13.8148  -11.7413   -4.5176 H   0  0  0  0  0  0  0  0  0  0  0  0
   13.5518   -7.6127   -4.3344 H   0  0  0  0  0  0  0  0  0  0  0  0
   16.2300   -1.9703   -3.0308 H   0  0  0  0  0  0  0  0  0  0  0  0
   13.9727   -1.2772   -3.9669 H   0  0  0  0  0  0  0  0  0  0  0  0
   14.1816   -5.4269   -4.0947 H   0  0  0  0  0  0  0  0  0  0  0  0
   18.6145   -6.6527   -2.0619 H   0  0  0  0  0  0  0  0  0  0  0  0
   18.0419   -9.0885   -2.6005 H   0  0  0  0  0  0  0  0  0  0  0  0
    9.0365   -6.2949   -6.0721 H   0  0  0  0  0  0  0  0  0  0  0  0
    9.7652   -3.8415   -5.9832 H   0  0  0  0  0  0  0  0  0  0  0  0
   10.1583   -2.5233   -3.5530 H   0  0  0  0  0  0  0  0  0  0  0  0
    8.9486   -0.4581   -3.9378 H   0  0  0  0  0  0  0  0  0  0  0  0
    5.4385    4.6726    4.5236 H   0  0  0  0  0  0  0  0  0  0  0  0
    4.1866    2.6188    4.3484 H   0  0  0  0  0  0  0  0  0  0  0  0
    2.9768    1.2521    2.9775 H   0  0  0  0  0  0  0  0  0  0  0  0
  1  2  1  0  0  0  0
  1 93  1  0  0  0  0
  1 94  1  0  0  0  0
  1 95  1  0  0  0  0
  2  3  1  0  0  0  0
  2 96  1  0  0  0  0
  2 97  1  0  0  0  0
  3  4  1  0  0  0  0
  4  5  1  0  0  0  0
  4 92  2  0  0  0  0
  5  6  2  0  0  0  0
  5 98  1  0  0  0  0
  6  7  1  0  0  0  0
  6 99  1  0  0  0  0
  7  8  2  0  0  0  0
  7100  1  0  0  0  0
  8  9  1  0  0  0  0
  8 92  1  0  0  0  0
  9 10  1  0  0  0  0
  9 91  2  0  0  0  0
 10 11  2  0  0  0  0
 10101  1  0  0  0  0
 11 12  1  0  0  0  0
 11102  1  0  0  0  0
 12 13  1  0  0  0  0
 12 90  2  0  0  0  0
 13 14  1  0  0  0  0
 13 15  1  0  0  0  0
 13103  1  1  0  0  0
 14104  1  0  0  0  0
 14105  1  0  0  0  0
 14106  1  0  0  0  0
 15 16  2  0  0  0  0
 15 17  1  0  0  0  0
 17 18  1  0  0  0  0
 17107  1  0  0  0  0
 18 19  1  0  0  0  0
 18108  1  0  0  0  0
 18109  1  0  0  0  0
 19 20  1  0  0  0  0
 19110  1  0  0  0  0
 19111  1  0  0  0  0
 20 21  1  0  0  0  0
 20112  1  0  0  0  0
 20113  1  0  0  0  0
 21 22  1  0  0  0  0
 21114  1  0  0  0  0
 21115  1  0  0  0  0
 22 23  1  0  0  0  0
 22116  1  0  0  0  0
 22117  1  0  0  0  0
 23 24  1  0  0  0  0
 23118  1  0  0  0  0
 23119  1  0  0  0  0
 24 25  1  0  0  0  0
 24120  1  0  0  0  0
 25 26  2  0  0  0  0
 25 27  1  0  0  0  0
 27 28  1  0  0  0  0
 27 89  2  0  0  0  0
 28 29  2  0  0  0  0
 28121  1  0  0  0  0
 29 30  1  0  0  0  0
 29122  1  0  0  0  0
 30 31  1  0  0  0  0
 30 88  2  0  0  0  0
 31 32  1  0  0  0  0
 31 82  2  0  0  0  0
 32 33  2  0  0  0  0
 32 87  1  0  0  0  0
 33 34  1  0  0  0  0
 34 35  2  0  0  0  0
 34 86  1  0  0  0  0
 35 36  1  0  0  0  0
 35 47  1  0  0  0  0
 36 37  1  0  0  0  0
 36 45  2  0  0  0  0
 37 38  1  0  0  0  0
 37 39  2  0  0  0  0
 39 40  1  0  0  0  0
 39 41  1  0  0  0  0
 41 42  1  0  0  0  0
 41 43  2  0  0  0  0
 43 44  1  0  0  0  0
 43 45  1  0  0  0  0
 45 46  1  0  0  0  0
 47 48  2  0  0  0  0
 47 51  1  0  0  0  0
 48 49  1  0  0  0  0
 48123  1  0  0  0  0
 49 50  2  0  0  0  0
 49124  1  0  0  0  0
 50 51  1  0  0  0  0
 50 52  1  0  0  0  0
 51125  1  0  0  0  0
 52 53  1  0  0  0  0
 52 64  2  0  0  0  0
 53 54  1  0  0  0  0
 53 62  2  0  0  0  0
 54 55  1  0  0  0  0
 54 56  2  0  0  0  0
 56 57  1  0  0  0  0
 56 58  1  0  0  0  0
 58 59  1  0  0  0  0
 58 60  2  0  0  0  0
 60 61  1  0  0  0  0
 60 62  1  0  0  0  0
 62 63  1  0  0  0  0
 64 65  1  0  0  0  0
 64 85  1  0  0  0  0
 65 66  2  0  0  0  0
 66 67  1  0  0  0  0
 66 84  1  0  0  0  0
 67 68  1  0  0  0  0
 67 79  2  0  0  0  0
 68 69  1  0  0  0  0
 68 77  2  0  0  0  0
 69 70  1  0  0  0  0
 69 71  2  0  0  0  0
 71 72  1  0  0  0  0
 71 73  1  0  0  0  0
 73 74  1  0  0  0  0
 73 75  2  0  0  0  0
 75 76  1  0  0  0  0
 75 77  1  0  0  0  0
 77 78  1  0  0  0  0
 79 80  1  0  0  0  0
 79 83  1  0  0  0  0
 80 81  2  0  0  0  0
 80126  1  0  0  0  0
 81 82  1  0  0  0  0
 81127  1  0  0  0  0
 82 83  1  0  0  0  0
 83128  1  0  0  0  0
 84 85  2  0  0  0  0
 84129  1  0  0  0  0
 85130  1  0  0  0  0
 86 87  2  0  0  0  0
 86131  1  0  0  0  0
 87132  1  0  0  0  0
 88 89  1  0  0  0  0
 88133  1  0  0  0  0
 89134  1  0  0  0  0
 90 91  1  0  0  0  0
 90135  1  0  0  0  0
 91136  1  0  0  0  0
 92137  1  0  0  0  0
M  END
$$$$
