1_1_3642
 OpenBabel01102313223D

120129  0  0  0  0  0  0  0  0999 V2000
    0.9776    0.2072    0.0359 O   0  0  0  0  0  0  0  0  0  0  0  0
    2.1815   -0.0178    0.0896 C   0  0  0  0  0  0  0  0  0  0  0  0
    3.0218    0.7547    1.0411 C   0  0  0  0  0  0  0  0  0  0  0  0
    4.3607    0.8498    1.0238 C   0  0  0  0  0  0  0  0  0  0  0  0
    5.0976    1.7495    1.9218 C   0  0  0  0  0  0  0  0  0  0  0  0
    4.8015    1.8518    3.2917 C   0  0  0  0  0  0  0  0  0  0  0  0
    5.5080    2.7388    4.1128 C   0  0  0  0  0  0  0  0  0  0  0  0
    6.5184    3.5145    3.5596 C   0  0  0  0  0  0  0  0  0  0  0  0
    7.2328    4.4118    4.3032 O   0  0  0  0  0  0  0  0  0  0  0  0
    6.8333    3.3975    2.2092 C   0  0  0  0  0  0  0  0  0  0  0  0
    7.8302    4.1611    1.6720 O   0  0  0  0  0  0  0  0  0  0  0  0
    6.1395    2.5190    1.3886 C   0  0  0  0  0  0  0  0  0  0  0  0
    2.8243   -0.9545   -0.6724 N   0  0  0  0  0  0  0  0  0  0  0  0
    2.1581   -1.6809   -1.7337 C   0  0  0  0  0  0  0  0  0  0  0  0
    2.6799   -1.2646   -3.1102 C   0  0  0  0  0  0  0  0  0  0  0  0
    4.1825   -1.4955   -3.3226 C   0  0  0  0  0  0  0  0  0  0  0  0
    4.6622   -2.9365   -3.1214 C   0  0  0  0  0  0  0  0  0  0  0  0
    3.9749   -3.9808   -4.0021 C   0  0  0  0  0  0  0  0  0  0  0  0
    4.1171   -3.7481   -5.5024 C   0  0  0  0  0  0  0  0  0  0  0  0
    5.4936   -3.8695   -5.9599 N   0  0  0  0  0  0  0  0  0  0  0  0
    6.0011   -4.6216   -6.9915 C   0  0  0  0  0  0  0  0  0  0  0  0
    7.2140   -4.7328   -7.1434 O   0  0  0  0  0  0  0  0  0  0  0  0
    5.0778   -5.3243   -7.9081 C   0  0  0  0  0  0  0  0  0  0  0  0
    5.3187   -6.6651   -8.2198 C   0  0  0  0  0  0  0  0  0  0  0  0
    4.4077   -7.3663   -9.0143 C   0  0  0  0  0  0  0  0  0  0  0  0
    3.2345   -6.7417   -9.4675 C   0  0  0  0  0  0  0  0  0  0  0  0
    2.2077   -7.4802  -10.2484 C   0  0  0  0  0  0  0  0  0  0  0  0
    1.8916   -7.0568  -11.6572 C   0  0  0  0  0  0  0  0  0  0  0  0
    0.9460   -7.4801  -12.4576 N   0  0  0  0  0  0  0  0  0  0  0  0
    1.0617   -6.7203  -13.6144 C   0  0  0  0  0  0  0  0  0  0  0  0
    0.3394   -6.8083  -14.7559 C   0  0  0  0  0  0  0  0  0  0  0  0
    0.6467   -5.8439  -15.8638 C   0  0  0  0  0  0  0  0  0  0  0  0
    1.8231   -5.9403  -16.6209 C   0  0  0  0  0  0  0  0  0  0  0  0
    2.7547   -6.8534  -16.3082 F   0  0  0  0  0  0  0  0  0  0  0  0
    2.0560   -5.0832  -17.6934 C   0  0  0  0  0  0  0  0  0  0  0  0
    3.2010   -5.1732  -18.3840 F   0  0  0  0  0  0  0  0  0  0  0  0
    1.1062   -4.1369  -18.0484 C   0  0  0  0  0  0  0  0  0  0  0  0
    1.3224   -3.3281  -19.0949 F   0  0  0  0  0  0  0  0  0  0  0  0
   -0.0677   -4.0290  -17.3186 C   0  0  0  0  0  0  0  0  0  0  0  0
   -0.9941   -3.1265  -17.6700 F   0  0  0  0  0  0  0  0  0  0  0  0
   -0.2905   -4.8643  -16.2277 C   0  0  0  0  0  0  0  0  0  0  0  0
   -1.4351   -4.7346  -15.5400 F   0  0  0  0  0  0  0  0  0  0  0  0
   -0.7062   -7.7710  -14.9806 C   0  0  0  0  0  0  0  0  0  0  0  0
   -1.4391   -7.9911  -16.1338 C   0  0  0  0  0  0  0  0  0  0  0  0
   -2.3824   -8.9868  -15.8682 C   0  0  0  0  0  0  0  0  0  0  0  0
   -2.1956   -9.4305  -14.5693 C   0  0  0  0  0  0  0  0  0  0  0  0
   -1.1678   -8.6719  -14.0336 N   0  0  0  0  0  0  0  0  0  0  0  0
   -2.9077  -10.4657  -13.8669 C   0  0  0  0  0  0  0  0  0  0  0  0
   -3.9806  -11.2005  -14.6169 C   0  0  0  0  0  0  0  0  0  0  0  0
   -5.3409  -11.0241  -14.3273 C   0  0  0  0  0  0  0  0  0  0  0  0
   -5.7180  -10.2357  -13.3094 F   0  0  0  0  0  0  0  0  0  0  0  0
   -6.3199  -11.6863  -15.0635 C   0  0  0  0  0  0  0  0  0  0  0  0
   -7.6123  -11.5377  -14.7413 F   0  0  0  0  0  0  0  0  0  0  0  0
   -5.9605  -12.5060  -16.1234 C   0  0  0  0  0  0  0  0  0  0  0  0
   -6.9054  -13.1300  -16.8400 F   0  0  0  0  0  0  0  0  0  0  0  0
   -4.6219  -12.6822  -16.4374 C   0  0  0  0  0  0  0  0  0  0  0  0
   -4.2727  -13.4595  -17.4717 F   0  0  0  0  0  0  0  0  0  0  0  0
   -3.6397  -12.0484  -15.6827 C   0  0  0  0  0  0  0  0  0  0  0  0
   -2.3524  -12.2446  -16.0059 F   0  0  0  0  0  0  0  0  0  0  0  0
   -2.6639  -10.8418  -12.5883 C   0  0  0  0  0  0  0  0  0  0  0  0
   -1.6999  -10.3689  -11.7074 N   0  0  0  0  0  0  0  0  0  0  0  0
   -1.8702  -11.0382  -10.5935 C   0  0  0  0  0  0  0  0  0  0  0  0
   -1.0809  -10.9718   -9.3108 C   0  0  0  0  0  0  0  0  0  0  0  0
   -1.4504  -11.8373   -8.1575 C   0  0  0  0  0  0  0  0  0  0  0  0
   -1.3295  -13.2326   -8.2368 C   0  0  0  0  0  0  0  0  0  0  0  0
   -0.8469  -13.8000   -9.3523 F   0  0  0  0  0  0  0  0  0  0  0  0
   -1.7638  -14.0549   -7.1989 C   0  0  0  0  0  0  0  0  0  0  0  0
   -1.7025  -15.3868   -7.3325 F   0  0  0  0  0  0  0  0  0  0  0  0
   -2.2886  -13.4976   -6.0432 C   0  0  0  0  0  0  0  0  0  0  0  0
   -2.7158  -14.2884   -5.0496 F   0  0  0  0  0  0  0  0  0  0  0  0
   -2.3840  -12.1193   -5.9257 C   0  0  0  0  0  0  0  0  0  0  0  0
   -2.8773  -11.5759   -4.8046 F   0  0  0  0  0  0  0  0  0  0  0  0
   -1.9824  -11.2975   -6.9774 C   0  0  0  0  0  0  0  0  0  0  0  0
   -2.1163   -9.9697   -6.8455 F   0  0  0  0  0  0  0  0  0  0  0  0
   -0.0402  -10.1203   -9.2235 C   0  0  0  0  0  0  0  0  0  0  0  0
    0.8049   -9.9322   -8.0484 C   0  0  0  0  0  0  0  0  0  0  0  0
    1.6868   -8.9495   -8.2947 C   0  0  0  0  0  0  0  0  0  0  0  0
    1.5008   -8.4686   -9.6648 C   0  0  0  0  0  0  0  0  0  0  0  0
    0.4655   -9.2340  -10.1449 N   0  0  0  0  0  0  0  0  0  0  0  0
   -2.9967  -11.9828  -10.6319 C   0  0  0  0  0  0  0  0  0  0  0  0
   -3.4118  -11.8602  -11.8841 C   0  0  0  0  0  0  0  0  0  0  0  0
    2.1436   -5.7845  -13.4021 C   0  0  0  0  0  0  0  0  0  0  0  0
    2.7333   -5.9957  -12.2342 C   0  0  0  0  0  0  0  0  0  0  0  0
    3.0274   -5.3834   -9.1772 C   0  0  0  0  0  0  0  0  0  0  0  0
    3.9700   -4.6655   -8.4470 C   0  0  0  0  0  0  0  0  0  0  0  0
    2.5280    1.2680    1.7879 H   0  0  0  0  0  0  0  0  0  0  0  0
    4.8918    0.2699    0.3555 H   0  0  0  0  0  0  0  0  0  0  0  0
    4.0546    1.2663    3.6972 H   0  0  0  0  0  0  0  0  0  0  0  0
    5.2808    2.8152    5.1166 H   0  0  0  0  0  0  0  0  0  0  0  0
    7.0476    4.5167    5.2157 H   0  0  0  0  0  0  0  0  0  0  0  0
    8.3068    4.7584    2.2143 H   0  0  0  0  0  0  0  0  0  0  0  0
    6.3899    2.4332    0.3911 H   0  0  0  0  0  0  0  0  0  0  0  0
    3.7740   -1.1417   -0.4929 H   0  0  0  0  0  0  0  0  0  0  0  0
    1.1078   -1.4822   -1.6852 H   0  0  0  0  0  0  0  0  0  0  0  0
    2.3544   -2.7244   -1.6014 H   0  0  0  0  0  0  0  0  0  0  0  0
    2.4812   -0.2213   -3.2405 H   0  0  0  0  0  0  0  0  0  0  0  0
    2.1752   -1.8814   -3.8242 H   0  0  0  0  0  0  0  0  0  0  0  0
    4.7127   -0.8721   -2.6333 H   0  0  0  0  0  0  0  0  0  0  0  0
    4.3738   -1.2624   -4.3492 H   0  0  0  0  0  0  0  0  0  0  0  0
    4.4922   -3.2022   -2.0990 H   0  0  0  0  0  0  0  0  0  0  0  0
    5.6953   -2.9470   -3.3998 H   0  0  0  0  0  0  0  0  0  0  0  0
    2.9319   -3.9827   -3.7633 H   0  0  0  0  0  0  0  0  0  0  0  0
    4.4580   -4.9129   -3.7955 H   0  0  0  0  0  0  0  0  0  0  0  0
    3.7655   -2.7638   -5.7313 H   0  0  0  0  0  0  0  0  0  0  0  0
    3.5420   -4.4990   -6.0027 H   0  0  0  0  0  0  0  0  0  0  0  0
    6.1540   -3.3377   -5.4596 H   0  0  0  0  0  0  0  0  0  0  0  0
    6.1659   -7.1355   -7.8647 H   0  0  0  0  0  0  0  0  0  0  0  0
    4.5981   -8.3480   -9.2692 H   0  0  0  0  0  0  0  0  0  0  0  0
   -1.3109   -7.5038  -17.0344 H   0  0  0  0  0  0  0  0  0  0  0  0
   -3.0969   -9.3329  -16.5276 H   0  0  0  0  0  0  0  0  0  0  0  0
   -0.8177   -8.7595  -13.1176 H   0  0  0  0  0  0  0  0  0  0  0  0
    0.7359  -10.4683   -7.1693 H   0  0  0  0  0  0  0  0  0  0  0  0
    2.3847   -8.5905   -7.6245 H   0  0  0  0  0  0  0  0  0  0  0  0
    0.1183   -9.1551  -11.0628 H   0  0  0  0  0  0  0  0  0  0  0  0
   -3.3673  -12.5843   -9.8796 H   0  0  0  0  0  0  0  0  0  0  0  0
   -4.1712  -12.4194  -12.3032 H   0  0  0  0  0  0  0  0  0  0  0  0
    2.4200   -5.0494  -14.0716 H   0  0  0  0  0  0  0  0  0  0  0  0
    3.5658   -5.5360  -11.8335 H   0  0  0  0  0  0  0  0  0  0  0  0
    2.1698   -4.9140   -9.5078 H   0  0  0  0  0  0  0  0  0  0  0  0
    3.8510   -3.6504   -8.3042 H   0  0  0  0  0  0  0  0  0  0  0  0
  1  2  2  0  0  0  0
  2  3  1  0  0  0  0
  2 13  1  0  0  0  0
  3  4  2  0  0  0  0
  3 86  1  0  0  0  0
  4  5  1  0  0  0  0
  4 87  1  0  0  0  0
  5  6  1  0  0  0  0
  5 12  2  0  0  0  0
  6  7  2  0  0  0  0
  6 88  1  0  0  0  0
  7  8  1  0  0  0  0
  7 89  1  0  0  0  0
  8  9  1  0  0  0  0
  8 10  2  0  0  0  0
  9 90  1  0  0  0  0
 10 11  1  0  0  0  0
 10 12  1  0  0  0  0
 11 91  1  0  0  0  0
 12 92  1  0  0  0  0
 13 14  1  0  0  0  0
 13 93  1  0  0  0  0
 14 15  1  0  0  0  0
 14 94  1  0  0  0  0
 14 95  1  0  0  0  0
 15 16  1  0  0  0  0
 15 96  1  0  0  0  0
 15 97  1  0  0  0  0
 16 17  1  0  0  0  0
 16 98  1  0  0  0  0
 16 99  1  0  0  0  0
 17 18  1  0  0  0  0
 17100  1  0  0  0  0
 17101  1  0  0  0  0
 18 19  1  0  0  0  0
 18102  1  0  0  0  0
 18103  1  0  0  0  0
 19 20  1  0  0  0  0
 19104  1  0  0  0  0
 19105  1  0  0  0  0
 20 21  1  0  0  0  0
 20106  1  0  0  0  0
 21 22  2  0  0  0  0
 21 23  1  0  0  0  0
 23 24  1  0  0  0  0
 23 85  2  0  0  0  0
 24 25  2  0  0  0  0
 24107  1  0  0  0  0
 25 26  1  0  0  0  0
 25108  1  0  0  0  0
 26 27  1  0  0  0  0
 26 84  2  0  0  0  0
 27 28  1  0  0  0  0
 27 78  2  0  0  0  0
 28 29  2  0  0  0  0
 28 83  1  0  0  0  0
 29 30  1  0  0  0  0
 30 31  2  0  0  0  0
 30 82  1  0  0  0  0
 31 32  1  0  0  0  0
 31 43  1  0  0  0  0
 32 33  1  0  0  0  0
 32 41  2  0  0  0  0
 33 34  1  0  0  0  0
 33 35  2  0  0  0  0
 35 36  1  0  0  0  0
 35 37  1  0  0  0  0
 37 38  1  0  0  0  0
 37 39  2  0  0  0  0
 39 40  1  0  0  0  0
 39 41  1  0  0  0  0
 41 42  1  0  0  0  0
 43 44  2  0  0  0  0
 43 47  1  0  0  0  0
 44 45  1  0  0  0  0
 44109  1  0  0  0  0
 45 46  2  0  0  0  0
 45110  1  0  0  0  0
 46 47  1  0  0  0  0
 46 48  1  0  0  0  0
 47111  1  0  0  0  0
 48 49  1  0  0  0  0
 48 60  2  0  0  0  0
 49 50  1  0  0  0  0
 49 58  2  0  0  0  0
 50 51  1  0  0  0  0
 50 52  2  0  0  0  0
 52 53  1  0  0  0  0
 52 54  1  0  0  0  0
 54 55  1  0  0  0  0
 54 56  2  0  0  0  0
 56 57  1  0  0  0  0
 56 58  1  0  0  0  0
 58 59  1  0  0  0  0
 60 61  1  0  0  0  0
 60 81  1  0  0  0  0
 61 62  2  0  0  0  0
 62 63  1  0  0  0  0
 62 80  1  0  0  0  0
 63 64  1  0  0  0  0
 63 75  2  0  0  0  0
 64 65  1  0  0  0  0
 64 73  2  0  0  0  0
 65 66  1  0  0  0  0
 65 67  2  0  0  0  0
 67 68  1  0  0  0  0
 67 69  1  0  0  0  0
 69 70  1  0  0  0  0
 69 71  2  0  0  0  0
 71 72  1  0  0  0  0
 71 73  1  0  0  0  0
 73 74  1  0  0  0  0
 75 76  1  0  0  0  0
 75 79  1  0  0  0  0
 76 77  2  0  0  0  0
 76112  1  0  0  0  0
 77 78  1  0  0  0  0
 77113  1  0  0  0  0
 78 79  1  0  0  0  0
 79114  1  0  0  0  0
 80 81  2  0  0  0  0
 80115  1  0  0  0  0
 81116  1  0  0  0  0
 82 83  2  0  0  0  0
 82117  1  0  0  0  0
 83118  1  0  0  0  0
 84 85  1  0  0  0  0
 84119  1  0  0  0  0
 85120  1  0  0  0  0
M  END
$$$$
