1_1_3377
 OpenBabel01102313213D

144155  0  0  0  0  0  0  0  0999 V2000
    1.0595    0.0433   -0.0264 C   0  0  0  0  0  0  0  0  0  0  0  0
    0.5971    1.3408    0.3345 O   0  0  0  0  0  0  0  0  0  0  0  0
    0.9971    1.7607    1.5748 C   0  0  0  0  0  0  0  0  0  0  0  0
    2.2981    1.6562    2.0544 C   0  0  0  0  0  0  0  0  0  0  0  0
    2.6471    2.1649    3.3165 C   0  0  0  0  0  0  0  0  0  0  0  0
    1.6449    2.7637    4.1028 C   0  0  0  0  0  0  0  0  0  0  0  0
    0.3336    2.8741    3.6311 C   0  0  0  0  0  0  0  0  0  0  0  0
    0.0196    2.3952    2.3415 C   0  0  0  0  0  0  0  0  0  0  0  0
   -0.4397    3.4978    4.6509 C   0  0  0  0  0  0  0  0  0  0  0  0
   -1.8809    3.9002    4.5556 C   0  0  0  0  0  0  0  0  0  0  0  0
   -2.1830    4.8310    3.3908 C   0  0  0  0  0  0  0  0  0  0  0  0
   -3.0038    4.5218    2.5231 O   0  0  0  0  0  0  0  0  0  0  0  0
   -1.6173    6.0720    3.3238 N   0  0  0  0  0  0  0  0  0  0  0  0
   -0.5879    6.6625    4.1563 C   0  0  0  0  0  0  0  0  0  0  0  0
    0.7351    6.7917    3.4007 C   0  0  0  0  0  0  0  0  0  0  0  0
    0.6968    7.8328    2.2744 C   0  0  0  0  0  0  0  0  0  0  0  0
    0.4106    9.2690    2.7330 C   0  0  0  0  0  0  0  0  0  0  0  0
    1.4116    9.8313    3.7490 C   0  0  0  0  0  0  0  0  0  0  0  0
    2.8585    9.7847    3.2644 C   0  0  0  0  0  0  0  0  0  0  0  0
    3.1008   10.5690    2.0752 N   0  0  0  0  0  0  0  0  0  0  0  0
    3.5462   11.8380    1.8386 C   0  0  0  0  0  0  0  0  0  0  0  0
    3.8089   12.1162    0.6659 O   0  0  0  0  0  0  0  0  0  0  0  0
    3.6256   12.9180    2.8589 C   0  0  0  0  0  0  0  0  0  0  0  0
    3.4860   12.7603    4.2383 C   0  0  0  0  0  0  0  0  0  0  0  0
    3.3148   13.8686    5.0574 C   0  0  0  0  0  0  0  0  0  0  0  0
    3.3208   15.1480    4.5016 C   0  0  0  0  0  0  0  0  0  0  0  0
    3.0700   16.2833    5.3807 C   0  0  0  0  0  0  0  0  0  0  0  0
    4.0520   16.4375    6.4934 C   0  0  0  0  0  0  0  0  0  0  0  0
    3.8206   16.4743    7.7663 N   0  0  0  0  0  0  0  0  0  0  0  0
    5.0599   16.6548    8.3798 C   0  0  0  0  0  0  0  0  0  0  0  0
    5.1683   17.1135    9.6570 C   0  0  0  0  0  0  0  0  0  0  0  0
    6.2730   18.0125   10.1454 C   0  0  0  0  0  0  0  0  0  0  0  0
    6.3969   18.2795   11.5235 C   0  0  0  0  0  0  0  0  0  0  0  0
    5.7179   17.5531   12.4244 F   0  0  0  0  0  0  0  0  0  0  0  0
    7.1495   19.3565   12.0001 C   0  0  0  0  0  0  0  0  0  0  0  0
    7.1417   19.6469   13.3083 F   0  0  0  0  0  0  0  0  0  0  0  0
    7.8463   20.1681   11.1234 C   0  0  0  0  0  0  0  0  0  0  0  0
    8.5173   21.2369   11.5717 F   0  0  0  0  0  0  0  0  0  0  0  0
    7.8017   19.8982    9.7719 C   0  0  0  0  0  0  0  0  0  0  0  0
    8.4511   20.6876    8.9047 F   0  0  0  0  0  0  0  0  0  0  0  0
    7.0120   18.8567    9.2898 C   0  0  0  0  0  0  0  0  0  0  0  0
    6.9079   18.7804    7.9574 F   0  0  0  0  0  0  0  0  0  0  0  0
    3.9424   16.9447   10.3849 C   0  0  0  0  0  0  0  0  0  0  0  0
    3.2076   15.8491   10.7922 C   0  0  0  0  0  0  0  0  0  0  0  0
    1.8479   16.2449   10.6438 C   0  0  0  0  0  0  0  0  0  0  0  0
    1.8362   17.5750   10.2233 C   0  0  0  0  0  0  0  0  0  0  0  0
    3.1019   18.0231   10.5003 N   0  0  0  0  0  0  0  0  0  0  0  0
    0.8343   18.3771    9.5660 C   0  0  0  0  0  0  0  0  0  0  0  0
   -0.5525   17.8009    9.5123 C   0  0  0  0  0  0  0  0  0  0  0  0
   -1.1192   17.2387    8.3545 C   0  0  0  0  0  0  0  0  0  0  0  0
   -0.4676   17.2631    7.1858 F   0  0  0  0  0  0  0  0  0  0  0  0
   -2.3400   16.5671    8.3999 C   0  0  0  0  0  0  0  0  0  0  0  0
   -2.8551   16.0308    7.2833 F   0  0  0  0  0  0  0  0  0  0  0  0
   -2.9977   16.4050    9.6075 C   0  0  0  0  0  0  0  0  0  0  0  0
   -4.1407   15.7069    9.6630 F   0  0  0  0  0  0  0  0  0  0  0  0
   -2.4495   16.9335   10.7651 C   0  0  0  0  0  0  0  0  0  0  0  0
   -3.0528   16.7297   11.9443 F   0  0  0  0  0  0  0  0  0  0  0  0
   -1.2493   17.6363   10.7160 C   0  0  0  0  0  0  0  0  0  0  0  0
   -0.7265   18.0990   11.8625 F   0  0  0  0  0  0  0  0  0  0  0  0
    1.1020   19.4835    8.8141 C   0  0  0  0  0  0  0  0  0  0  0  0
    0.1893   19.9554    7.8831 N   0  0  0  0  0  0  0  0  0  0  0  0
    0.9180   20.5548    6.9822 C   0  0  0  0  0  0  0  0  0  0  0  0
    0.6608   20.4559    5.5226 C   0  0  0  0  0  0  0  0  0  0  0  0
    0.5259   21.6539    4.6566 C   0  0  0  0  0  0  0  0  0  0  0  0
   -0.0636   22.8375    5.1312 C   0  0  0  0  0  0  0  0  0  0  0  0
   -0.6973   22.8479    6.3129 F   0  0  0  0  0  0  0  0  0  0  0  0
    0.0464   24.0459    4.4315 C   0  0  0  0  0  0  0  0  0  0  0  0
   -0.4818   25.1667    4.9435 F   0  0  0  0  0  0  0  0  0  0  0  0
    0.7471   24.1047    3.2381 C   0  0  0  0  0  0  0  0  0  0  0  0
    0.9025   25.2718    2.5975 F   0  0  0  0  0  0  0  0  0  0  0  0
    1.3234   22.9546    2.7338 C   0  0  0  0  0  0  0  0  0  0  0  0
    2.0387   23.0047    1.6009 F   0  0  0  0  0  0  0  0  0  0  0  0
    1.2190   21.7510    3.4333 C   0  0  0  0  0  0  0  0  0  0  0  0
    1.8908   20.7015    2.9390 F   0  0  0  0  0  0  0  0  0  0  0  0
    0.9396   19.1806    5.1493 C   0  0  0  0  0  0  0  0  0  0  0  0
    0.6069   18.4653    3.9311 C   0  0  0  0  0  0  0  0  0  0  0  0
    1.2121   17.2562    3.9569 C   0  0  0  0  0  0  0  0  0  0  0  0
    2.0856   17.1722    5.1315 C   0  0  0  0  0  0  0  0  0  0  0  0
    1.7174   18.2673    5.8510 N   0  0  0  0  0  0  0  0  0  0  0  0
    2.2659   20.9144    7.4008 C   0  0  0  0  0  0  0  0  0  0  0  0
    2.3600   20.1569    8.4970 C   0  0  0  0  0  0  0  0  0  0  0  0
    6.0553   16.4939    7.3528 C   0  0  0  0  0  0  0  0  0  0  0  0
    5.4847   16.4282    6.1495 C   0  0  0  0  0  0  0  0  0  0  0  0
    3.6290   15.3314    3.1593 C   0  0  0  0  0  0  0  0  0  0  0  0
    3.7646   14.2202    2.3430 C   0  0  0  0  0  0  0  0  0  0  0  0
    0.3725    3.6003    5.7733 C   0  0  0  0  0  0  0  0  0  0  0  0
   -0.0430    3.9711    7.1556 C   0  0  0  0  0  0  0  0  0  0  0  0
    1.6721    3.3449    5.3661 N   0  0  0  0  0  0  0  0  0  0  0  0
    2.8870    3.5613    6.1649 C   0  0  0  0  0  0  0  0  0  0  0  0
    3.3615    5.0048    6.2118 C   0  0  0  0  0  0  0  0  0  0  0  0
    2.6763    5.9512    7.0718 C   0  0  0  0  0  0  0  0  0  0  0  0
    3.0509    7.2340    7.1328 C   0  0  0  0  0  0  0  0  0  0  0  0
    4.1422    7.6947    6.4248 N   0  0  0  0  0  0  0  0  0  0  0  0
    4.5855    9.0545    6.6205 C   0  0  0  0  0  0  0  0  0  0  0  0
    5.5125    9.1178    7.6047 F   0  0  0  0  0  0  0  0  0  0  0  0
    5.1282    9.5943    5.5048 F   0  0  0  0  0  0  0  0  0  0  0  0
    4.9456    6.8430    5.6792 C   0  0  0  0  0  0  0  0  0  0  0  0
    5.9879    7.1498    5.1230 O   0  0  0  0  0  0  0  0  0  0  0  0
    4.4615    5.4297    5.5638 C   0  0  0  0  0  0  0  0  0  0  0  0
    0.7025   -0.2033   -1.0045 H   0  0  0  0  0  0  0  0  0  0  0  0
    0.6941   -0.6743    0.6781 H   0  0  0  0  0  0  0  0  0  0  0  0
    2.1294    0.0325   -0.0241 H   0  0  0  0  0  0  0  0  0  0  0  0
    3.0182    1.1980    1.4744 H   0  0  0  0  0  0  0  0  0  0  0  0
    3.6181    2.1009    3.6600 H   0  0  0  0  0  0  0  0  0  0  0  0
   -0.9339    2.5144    1.9652 H   0  0  0  0  0  0  0  0  0  0  0  0
   -2.1532    4.3966    5.4635 H   0  0  0  0  0  0  0  0  0  0  0  0
   -2.4442    3.0051    4.3933 H   0  0  0  0  0  0  0  0  0  0  0  0
   -1.9588    6.6508    2.6043 H   0  0  0  0  0  0  0  0  0  0  0  0
   -0.4385    6.0439    5.0165 H   0  0  0  0  0  0  0  0  0  0  0  0
   -0.9083    7.6420    4.4439 H   0  0  0  0  0  0  0  0  0  0  0  0
    0.9762    5.8403    2.9746 H   0  0  0  0  0  0  0  0  0  0  0  0
    1.4703    7.1180    4.1064 H   0  0  0  0  0  0  0  0  0  0  0  0
   -0.0673    7.5462    1.5824 H   0  0  0  0  0  0  0  0  0  0  0  0
    1.6757    7.8446    1.8426 H   0  0  0  0  0  0  0  0  0  0  0  0
   -0.5621    9.2886    3.1783 H   0  0  0  0  0  0  0  0  0  0  0  0
    0.4885    9.8846    1.8613 H   0  0  0  0  0  0  0  0  0  0  0  0
    1.3373    9.2596    4.6504 H   0  0  0  0  0  0  0  0  0  0  0  0
    1.1625   10.8607    3.9012 H   0  0  0  0  0  0  0  0  0  0  0  0
    3.1113    8.7664    3.0542 H   0  0  0  0  0  0  0  0  0  0  0  0
    3.4614   10.2041    4.0425 H   0  0  0  0  0  0  0  0  0  0  0  0
    2.8988   10.0763    1.2471 H   0  0  0  0  0  0  0  0  0  0  0  0
    3.5101   11.8151    4.6519 H   0  0  0  0  0  0  0  0  0  0  0  0
    3.1836   13.7461    6.0737 H   0  0  0  0  0  0  0  0  0  0  0  0
    3.5654   14.9420   11.1302 H   0  0  0  0  0  0  0  0  0  0  0  0
    1.0197   15.6539   10.8164 H   0  0  0  0  0  0  0  0  0  0  0  0
    3.3589   18.9435   10.7370 H   0  0  0  0  0  0  0  0  0  0  0  0
    0.0071   18.8209    3.1703 H   0  0  0  0  0  0  0  0  0  0  0  0
    1.0796   16.5085    3.2581 H   0  0  0  0  0  0  0  0  0  0  0  0
    1.9802   18.4013    6.7903 H   0  0  0  0  0  0  0  0  0  0  0  0
    2.9471   21.5629    6.9760 H   0  0  0  0  0  0  0  0  0  0  0  0
    3.2220   20.0584    9.0559 H   0  0  0  0  0  0  0  0  0  0  0  0
    7.0714   16.4372    7.5242 H   0  0  0  0  0  0  0  0  0  0  0  0
    5.9303   16.3827    5.2198 H   0  0  0  0  0  0  0  0  0  0  0  0
    3.7550   16.2813    2.7760 H   0  0  0  0  0  0  0  0  0  0  0  0
    3.9709   14.3494    1.3401 H   0  0  0  0  0  0  0  0  0  0  0  0
   -1.1036    4.1094    7.1842 H   0  0  0  0  0  0  0  0  0  0  0  0
    0.4431    4.8802    7.4424 H   0  0  0  0  0  0  0  0  0  0  0  0
    0.2332    3.1900    7.8327 H   0  0  0  0  0  0  0  0  0  0  0  0
    3.6716    2.9649    5.7482 H   0  0  0  0  0  0  0  0  0  0  0  0
    2.6429    3.2883    7.1703 H   0  0  0  0  0  0  0  0  0  0  0  0
    1.8836    5.6282    7.6483 H   0  0  0  0  0  0  0  0  0  0  0  0
    2.5139    7.8911    7.7201 H   0  0  0  0  0  0  0  0  0  0  0  0
    3.7105    9.6120    6.8823 H   0  0  0  0  0  0  0  0  0  0  0  0
    4.9850    4.7654    4.9724 H   0  0  0  0  0  0  0  0  0  0  0  0
  1  2  1  0  0  0  0
  1100  1  0  0  0  0
  1101  1  0  0  0  0
  1102  1  0  0  0  0
  2  3  1  0  0  0  0
  3  4  1  0  0  0  0
  3  8  2  0  0  0  0
  4  5  2  0  0  0  0
  4103  1  0  0  0  0
  5  6  1  0  0  0  0
  5104  1  0  0  0  0
  6  7  2  0  0  0  0
  6 88  1  0  0  0  0
  7  8  1  0  0  0  0
  7  9  1  0  0  0  0
  8105  1  0  0  0  0
  9 10  1  0  0  0  0
  9 86  2  0  0  0  0
 10 11  1  0  0  0  0
 10106  1  0  0  0  0
 10107  1  0  0  0  0
 11 12  2  0  0  0  0
 11 13  1  0  0  0  0
 13 14  1  0  0  0  0
 13108  1  0  0  0  0
 14 15  1  0  0  0  0
 14109  1  0  0  0  0
 14110  1  0  0  0  0
 15 16  1  0  0  0  0
 15111  1  0  0  0  0
 15112  1  0  0  0  0
 16 17  1  0  0  0  0
 16113  1  0  0  0  0
 16114  1  0  0  0  0
 17 18  1  0  0  0  0
 17115  1  0  0  0  0
 17116  1  0  0  0  0
 18 19  1  0  0  0  0
 18117  1  0  0  0  0
 18118  1  0  0  0  0
 19 20  1  0  0  0  0
 19119  1  0  0  0  0
 19120  1  0  0  0  0
 20 21  1  0  0  0  0
 20121  1  0  0  0  0
 21 22  2  0  0  0  0
 21 23  1  0  0  0  0
 23 24  1  0  0  0  0
 23 85  2  0  0  0  0
 24 25  2  0  0  0  0
 24122  1  0  0  0  0
 25 26  1  0  0  0  0
 25123  1  0  0  0  0
 26 27  1  0  0  0  0
 26 84  2  0  0  0  0
 27 28  1  0  0  0  0
 27 78  2  0  0  0  0
 28 29  2  0  0  0  0
 28 83  1  0  0  0  0
 29 30  1  0  0  0  0
 30 31  2  0  0  0  0
 30 82  1  0  0  0  0
 31 32  1  0  0  0  0
 31 43  1  0  0  0  0
 32 33  1  0  0  0  0
 32 41  2  0  0  0  0
 33 34  1  0  0  0  0
 33 35  2  0  0  0  0
 35 36  1  0  0  0  0
 35 37  1  0  0  0  0
 37 38  1  0  0  0  0
 37 39  2  0  0  0  0
 39 40  1  0  0  0  0
 39 41  1  0  0  0  0
 41 42  1  0  0  0  0
 43 44  2  0  0  0  0
 43 47  1  0  0  0  0
 44 45  1  0  0  0  0
 44124  1  0  0  0  0
 45 46  2  0  0  0  0
 45125  1  0  0  0  0
 46 47  1  0  0  0  0
 46 48  1  0  0  0  0
 47126  1  0  0  0  0
 48 49  1  0  0  0  0
 48 60  2  0  0  0  0
 49 50  1  0  0  0  0
 49 58  2  0  0  0  0
 50 51  1  0  0  0  0
 50 52  2  0  0  0  0
 52 53  1  0  0  0  0
 52 54  1  0  0  0  0
 54 55  1  0  0  0  0
 54 56  2  0  0  0  0
 56 57  1  0  0  0  0
 56 58  1  0  0  0  0
 58 59  1  0  0  0  0
 60 61  1  0  0  0  0
 60 81  1  0  0  0  0
 61 62  2  0  0  0  0
 62 63  1  0  0  0  0
 62 80  1  0  0  0  0
 63 64  1  0  0  0  0
 63 75  2  0  0  0  0
 64 65  1  0  0  0  0
 64 73  2  0  0  0  0
 65 66  1  0  0  0  0
 65 67  2  0  0  0  0
 67 68  1  0  0  0  0
 67 69  1  0  0  0  0
 69 70  1  0  0  0  0
 69 71  2  0  0  0  0
 71 72  1  0  0  0  0
 71 73  1  0  0  0  0
 73 74  1  0  0  0  0
 75 76  1  0  0  0  0
 75 79  1  0  0  0  0
 76 77  2  0  0  0  0
 76127  1  0  0  0  0
 77 78  1  0  0  0  0
 77128  1  0  0  0  0
 78 79  1  0  0  0  0
 79129  1  0  0  0  0
 80 81  2  0  0  0  0
 80130  1  0  0  0  0
 81131  1  0  0  0  0
 82 83  2  0  0  0  0
 82132  1  0  0  0  0
 83133  1  0  0  0  0
 84 85  1  0  0  0  0
 84134  1  0  0  0  0
 85135  1  0  0  0  0
 86 87  1  0  0  0  0
 86 88  1  0  0  0  0
 87136  1  0  0  0  0
 87137  1  0  0  0  0
 87138  1  0  0  0  0
 88 89  1  0  0  0  0
 89 90  1  0  0  0  0
 89139  1  0  0  0  0
 89140  1  0  0  0  0
 90 91  1  0  0  0  0
 90 99  2  0  0  0  0
 91 92  2  0  0  0  0
 91141  1  0  0  0  0
 92 93  1  0  0  0  0
 92142  1  0  0  0  0
 93 94  1  0  0  0  0
 93 97  1  0  0  0  0
 94 95  1  0  0  0  0
 94 96  1  0  0  0  0
 94143  1  0  0  0  0
 97 98  2  0  0  0  0
 97 99  1  0  0  0  0
 99144  1  0  0  0  0
M  END
$$$$
