1_1_953
 OpenBabel01102313193D

144154  0  0  0  0  0  0  0  0999 V2000
   -0.3362    1.0823   -0.6227 C   0  0  0  0  0  0  0  0  0  0  0  0
    0.2526    1.0242   -2.0242 C   0  0  0  0  0  0  0  0  0  0  0  0
    0.7063   -0.3087   -2.2818 O   0  0  0  0  0  0  0  0  0  0  0  0
    2.0417   -0.3794   -2.6050 C   0  0  0  0  0  0  0  0  0  0  0  0
    2.4320    0.0003   -3.8902 C   0  0  0  0  0  0  0  0  0  0  0  0
    3.7644   -0.1109   -4.2566 C   0  0  0  0  0  0  0  0  0  0  0  0
    4.6853   -0.6288   -3.3479 C   0  0  0  0  0  0  0  0  0  0  0  0
    4.3146   -1.0236   -2.0472 C   0  0  0  0  0  0  0  0  0  0  0  0
    5.4138   -1.4994   -1.3818 O   0  0  0  0  0  0  0  0  0  0  0  0
    5.5020   -1.6821    0.0232 C   0  0  0  0  0  0  0  0  0  0  0  0
    6.0231   -0.4186    0.6966 C   0  0  0  0  0  0  0  0  0  0  0  0
    2.9607   -0.9007   -1.6547 C   0  0  0  0  0  0  0  0  0  0  0  0
    2.4639   -1.1068   -0.2908 C   0  0  0  0  0  0  0  0  0  0  0  0
    2.8465   -0.1782    0.6705 C   0  0  0  0  0  0  0  0  0  0  0  0
    2.4680   -0.3322    1.9906 C   0  0  0  0  0  0  0  0  0  0  0  0
    1.5245   -1.2664    2.3909 C   0  0  0  0  0  0  0  0  0  0  0  0
    1.0194   -1.2644    3.8242 C   0  0  1  0  0  0  0  0  0  0  0  0
    2.0187   -1.8623    4.8089 C   0  0  0  0  0  0  0  0  0  0  0  0
    0.3875    0.0716    4.2798 C   0  0  0  0  0  0  0  0  0  0  0  0
   -0.8472    0.1798    4.2876 O   0  0  0  0  0  0  0  0  0  0  0  0
    1.0644    1.1809    4.6900 N   0  0  0  0  0  0  0  0  0  0  0  0
    2.4687    1.5611    4.7616 C   0  0  0  0  0  0  0  0  0  0  0  0
    2.8529    2.5183    3.6151 C   0  0  0  0  0  0  0  0  0  0  0  0
    2.8441    4.0046    3.9640 C   0  0  0  0  0  0  0  0  0  0  0  0
    3.9235    4.4399    4.9583 C   0  0  0  0  0  0  0  0  0  0  0  0
    5.3692    4.1173    4.5609 C   0  0  0  0  0  0  0  0  0  0  0  0
    5.8305    4.7108    3.2304 C   0  0  0  0  0  0  0  0  0  0  0  0
    5.7863    6.1649    3.2364 N   0  0  0  0  0  0  0  0  0  0  0  0
    6.8048    7.0778    3.1482 C   0  0  0  0  0  0  0  0  0  0  0  0
    6.5910    8.2626    3.4078 O   0  0  0  0  0  0  0  0  0  0  0  0
    8.1640    6.6552    2.7509 C   0  0  0  0  0  0  0  0  0  0  0  0
    9.2636    7.1731    3.4418 C   0  0  0  0  0  0  0  0  0  0  0  0
   10.5562    6.7763    3.0902 C   0  0  0  0  0  0  0  0  0  0  0  0
   10.7561    5.8342    2.0681 C   0  0  0  0  0  0  0  0  0  0  0  0
   12.1177    5.3494    1.7242 C   0  0  0  0  0  0  0  0  0  0  0  0
   12.7085    5.6429    0.3731 C   0  0  0  0  0  0  0  0  0  0  0  0
   13.8421    5.2365   -0.1418 N   0  0  0  0  0  0  0  0  0  0  0  0
   13.8863    5.7657   -1.4249 C   0  0  0  0  0  0  0  0  0  0  0  0
   14.8835    5.6859   -2.3385 C   0  0  0  0  0  0  0  0  0  0  0  0
   14.6777    6.3779   -3.6552 C   0  0  0  0  0  0  0  0  0  0  0  0
   14.6767    7.7777   -3.7542 C   0  0  0  0  0  0  0  0  0  0  0  0
   14.8046    8.5323   -2.6523 F   0  0  0  0  0  0  0  0  0  0  0  0
   14.5094    8.4099   -4.9835 C   0  0  0  0  0  0  0  0  0  0  0  0
   14.4676    9.7479   -5.0466 F   0  0  0  0  0  0  0  0  0  0  0  0
   14.3754    7.6575   -6.1405 C   0  0  0  0  0  0  0  0  0  0  0  0
   14.2249    8.2674   -7.3243 F   0  0  0  0  0  0  0  0  0  0  0  0
   14.3918    6.2727   -6.0691 C   0  0  0  0  0  0  0  0  0  0  0  0
   14.2759    5.5443   -7.1883 F   0  0  0  0  0  0  0  0  0  0  0  0
   14.5290    5.6372   -4.8375 C   0  0  0  0  0  0  0  0  0  0  0  0
   14.5294    4.2963   -4.8007 F   0  0  0  0  0  0  0  0  0  0  0  0
   16.1266    4.9919   -2.1239 C   0  0  0  0  0  0  0  0  0  0  0  0
   17.2155    4.8882   -2.9719 C   0  0  0  0  0  0  0  0  0  0  0  0
   18.1772    4.0823   -2.3538 C   0  0  0  0  0  0  0  0  0  0  0  0
   17.7084    3.7246   -1.1002 C   0  0  0  0  0  0  0  0  0  0  0  0
   16.4458    4.2821   -0.9756 N   0  0  0  0  0  0  0  0  0  0  0  0
   18.3630    2.9327   -0.0909 C   0  0  0  0  0  0  0  0  0  0  0  0
   19.7430    2.4227   -0.3885 C   0  0  0  0  0  0  0  0  0  0  0  0
   19.9879    1.0645   -0.6380 C   0  0  0  0  0  0  0  0  0  0  0  0
   18.9876    0.1735   -0.5636 F   0  0  0  0  0  0  0  0  0  0  0  0
   21.2723    0.6107   -0.9256 C   0  0  0  0  0  0  0  0  0  0  0  0
   21.4917   -0.6980   -1.1134 F   0  0  0  0  0  0  0  0  0  0  0  0
   22.3271    1.5080   -1.0038 C   0  0  0  0  0  0  0  0  0  0  0  0
   23.5613    1.0700   -1.2879 F   0  0  0  0  0  0  0  0  0  0  0  0
   22.1039    2.8581   -0.7799 C   0  0  0  0  0  0  0  0  0  0  0  0
   23.1193    3.7283   -0.8681 F   0  0  0  0  0  0  0  0  0  0  0  0
   20.8268    3.3111   -0.4624 C   0  0  0  0  0  0  0  0  0  0  0  0
   20.6442    4.6210   -0.2383 F   0  0  0  0  0  0  0  0  0  0  0  0
   17.8358    2.6275    1.1199 C   0  0  0  0  0  0  0  0  0  0  0  0
   16.6066    2.9896    1.6539 N   0  0  0  0  0  0  0  0  0  0  0  0
   16.5520    2.4362    2.8408 C   0  0  0  0  0  0  0  0  0  0  0  0
   15.4632    2.5155    3.8769 C   0  0  0  0  0  0  0  0  0  0  0  0
   15.5883    1.7902    5.1685 C   0  0  0  0  0  0  0  0  0  0  0  0
   16.5425    2.1722    6.1218 C   0  0  0  0  0  0  0  0  0  0  0  0
   17.3636    3.2025    5.8709 F   0  0  0  0  0  0  0  0  0  0  0  0
   16.6893    1.4690    7.3158 C   0  0  0  0  0  0  0  0  0  0  0  0
   17.6442    1.8237    8.1862 F   0  0  0  0  0  0  0  0  0  0  0  0
   15.8623    0.3915    7.5950 C   0  0  0  0  0  0  0  0  0  0  0  0
   16.0027   -0.2836    8.7438 F   0  0  0  0  0  0  0  0  0  0  0  0
   14.8951    0.0098    6.6778 C   0  0  0  0  0  0  0  0  0  0  0  0
   14.0831   -1.0207    6.9503 F   0  0  0  0  0  0  0  0  0  0  0  0
   14.7680    0.6933    5.4704 C   0  0  0  0  0  0  0  0  0  0  0  0
   13.8344    0.2911    4.5956 F   0  0  0  0  0  0  0  0  0  0  0  0
   14.3706    3.2618    3.6259 C   0  0  0  0  0  0  0  0  0  0  0  0
   13.2420    3.4420    4.5340 C   0  0  0  0  0  0  0  0  0  0  0  0
   12.3119    4.2001    3.9318 C   0  0  0  0  0  0  0  0  0  0  0  0
   12.7957    4.5903    2.6067 C   0  0  0  0  0  0  0  0  0  0  0  0
   14.0305    3.9969    2.5163 N   0  0  0  0  0  0  0  0  0  0  0  0
   17.7356    1.6350    3.1831 C   0  0  0  0  0  0  0  0  0  0  0  0
   18.5043    1.8214    2.1197 C   0  0  0  0  0  0  0  0  0  0  0  0
   12.6433    6.4773   -1.6317 C   0  0  0  0  0  0  0  0  0  0  0  0
   11.9082    6.4856   -0.5290 C   0  0  0  0  0  0  0  0  0  0  0  0
    9.6457    5.3437    1.3638 C   0  0  0  0  0  0  0  0  0  0  0  0
    8.3614    5.7883    1.6724 C   0  0  0  0  0  0  0  0  0  0  0  0
    1.0809   -2.1769    1.4220 C   0  0  0  0  0  0  0  0  0  0  0  0
    1.5713   -2.1114    0.1058 C   0  0  0  0  0  0  0  0  0  0  0  0
    1.1463   -3.0263   -0.7785 F   0  0  0  0  0  0  0  0  0  0  0  0
   -0.6785    2.0757   -0.4205 H   0  0  0  0  0  0  0  0  0  0  0  0
    0.4138    0.8114    0.0908 H   0  0  0  0  0  0  0  0  0  0  0  0
   -1.1580    0.4007   -0.5526 H   0  0  0  0  0  0  0  0  0  0  0  0
    1.0757    1.7040   -2.0964 H   0  0  0  0  0  0  0  0  0  0  0  0
   -0.4921    1.2986   -2.7419 H   0  0  0  0  0  0  0  0  0  0  0  0
    1.7355    0.3603   -4.5612 H   0  0  0  0  0  0  0  0  0  0  0  0
    4.0720    0.1876   -5.1954 H   0  0  0  0  0  0  0  0  0  0  0  0
    5.6711   -0.7264   -3.6372 H   0  0  0  0  0  0  0  0  0  0  0  0
    6.1693   -2.4922    0.2313 H   0  0  0  0  0  0  0  0  0  0  0  0
    4.5262   -1.8990    0.4048 H   0  0  0  0  0  0  0  0  0  0  0  0
    6.9995   -0.1917    0.3223 H   0  0  0  0  0  0  0  0  0  0  0  0
    6.0735   -0.5730    1.7542 H   0  0  0  0  0  0  0  0  0  0  0  0
    5.3622    0.3962    0.4862 H   0  0  0  0  0  0  0  0  0  0  0  0
    3.4194    0.6349    0.3953 H   0  0  0  0  0  0  0  0  0  0  0  0
    2.9040    0.2708    2.7056 H   0  0  0  0  0  0  0  0  0  0  0  0
    0.1890   -1.9391    3.8283 H   0  0  0  0  0  0  0  0  0  0  0  0
    2.8858   -1.2375    4.8606 H   0  0  0  0  0  0  0  0  0  0  0  0
    2.3026   -2.8399    4.4795 H   0  0  0  0  0  0  0  0  0  0  0  0
    1.5688   -1.9289    5.7774 H   0  0  0  0  0  0  0  0  0  0  0  0
    0.4642    1.8911    5.0134 H   0  0  0  0  0  0  0  0  0  0  0  0
    3.0716    0.6796    4.6957 H   0  0  0  0  0  0  0  0  0  0  0  0
    2.6334    2.0659    5.6905 H   0  0  0  0  0  0  0  0  0  0  0  0
    2.1618    2.3647    2.8128 H   0  0  0  0  0  0  0  0  0  0  0  0
    3.8663    2.2829    3.3652 H   0  0  0  0  0  0  0  0  0  0  0  0
    1.8894    4.2415    4.3851 H   0  0  0  0  0  0  0  0  0  0  0  0
    3.0469    4.5278    3.0529 H   0  0  0  0  0  0  0  0  0  0  0  0
    3.7241    3.9558    5.8915 H   0  0  0  0  0  0  0  0  0  0  0  0
    3.8658    5.5075    4.9995 H   0  0  0  0  0  0  0  0  0  0  0  0
    5.4651    3.0534    4.4989 H   0  0  0  0  0  0  0  0  0  0  0  0
    5.9880    4.5614    5.3125 H   0  0  0  0  0  0  0  0  0  0  0  0
    5.1923    4.3492    2.4513 H   0  0  0  0  0  0  0  0  0  0  0  0
    6.8454    4.4122    3.0701 H   0  0  0  0  0  0  0  0  0  0  0  0
    4.8852    6.5534    3.3162 H   0  0  0  0  0  0  0  0  0  0  0  0
    9.1207    7.8472    4.2100 H   0  0  0  0  0  0  0  0  0  0  0  0
   11.3685    7.1777    3.5843 H   0  0  0  0  0  0  0  0  0  0  0  0
   17.3029    5.3296   -3.9006 H   0  0  0  0  0  0  0  0  0  0  0  0
   19.0824    3.8017   -2.7623 H   0  0  0  0  0  0  0  0  0  0  0  0
   15.8618    4.1883   -0.1886 H   0  0  0  0  0  0  0  0  0  0  0  0
   13.1706    3.0497    5.4859 H   0  0  0  0  0  0  0  0  0  0  0  0
   11.4012    4.4654    4.3383 H   0  0  0  0  0  0  0  0  0  0  0  0
   14.6167    4.0894    1.7307 H   0  0  0  0  0  0  0  0  0  0  0  0
   17.9198    1.0742    4.0296 H   0  0  0  0  0  0  0  0  0  0  0  0
   19.4579    1.4405    2.0173 H   0  0  0  0  0  0  0  0  0  0  0  0
   12.3656    6.9203   -2.5214 H   0  0  0  0  0  0  0  0  0  0  0  0
   11.0091    6.9595   -0.3499 H   0  0  0  0  0  0  0  0  0  0  0  0
    9.7811    4.6493    0.6125 H   0  0  0  0  0  0  0  0  0  0  0  0
    7.5571    5.4778    1.1053 H   0  0  0  0  0  0  0  0  0  0  0  0
    0.3899   -2.9000    1.6763 H   0  0  0  0  0  0  0  0  0  0  0  0
  1  2  1  0  0  0  0
  1 97  1  0  0  0  0
  1 98  1  0  0  0  0
  1 99  1  0  0  0  0
  2  3  1  0  0  0  0
  2100  1  0  0  0  0
  2101  1  0  0  0  0
  3  4  1  0  0  0  0
  4  5  1  0  0  0  0
  4 12  2  0  0  0  0
  5  6  2  0  0  0  0
  5102  1  0  0  0  0
  6  7  1  0  0  0  0
  6103  1  0  0  0  0
  7  8  2  0  0  0  0
  7104  1  0  0  0  0
  8  9  1  0  0  0  0
  8 12  1  0  0  0  0
  9 10  1  0  0  0  0
 10 11  1  0  0  0  0
 10105  1  0  0  0  0
 10106  1  0  0  0  0
 11107  1  0  0  0  0
 11108  1  0  0  0  0
 11109  1  0  0  0  0
 12 13  1  0  0  0  0
 13 14  1  0  0  0  0
 13 95  2  0  0  0  0
 14 15  2  0  0  0  0
 14110  1  0  0  0  0
 15 16  1  0  0  0  0
 15111  1  0  0  0  0
 16 17  1  0  0  0  0
 16 94  2  0  0  0  0
 17 18  1  0  0  0  0
 17 19  1  0  0  0  0
 17112  1  6  0  0  0
 18113  1  0  0  0  0
 18114  1  0  0  0  0
 18115  1  0  0  0  0
 19 20  2  0  0  0  0
 19 21  1  0  0  0  0
 21 22  1  0  0  0  0
 21116  1  0  0  0  0
 22 23  1  0  0  0  0
 22117  1  0  0  0  0
 22118  1  0  0  0  0
 23 24  1  0  0  0  0
 23119  1  0  0  0  0
 23120  1  0  0  0  0
 24 25  1  0  0  0  0
 24121  1  0  0  0  0
 24122  1  0  0  0  0
 25 26  1  0  0  0  0
 25123  1  0  0  0  0
 25124  1  0  0  0  0
 26 27  1  0  0  0  0
 26125  1  0  0  0  0
 26126  1  0  0  0  0
 27 28  1  0  0  0  0
 27127  1  0  0  0  0
 27128  1  0  0  0  0
 28 29  1  0  0  0  0
 28129  1  0  0  0  0
 29 30  2  0  0  0  0
 29 31  1  0  0  0  0
 31 32  1  0  0  0  0
 31 93  2  0  0  0  0
 32 33  2  0  0  0  0
 32130  1  0  0  0  0
 33 34  1  0  0  0  0
 33131  1  0  0  0  0
 34 35  1  0  0  0  0
 34 92  2  0  0  0  0
 35 36  1  0  0  0  0
 35 86  2  0  0  0  0
 36 37  2  0  0  0  0
 36 91  1  0  0  0  0
 37 38  1  0  0  0  0
 38 39  2  0  0  0  0
 38 90  1  0  0  0  0
 39 40  1  0  0  0  0
 39 51  1  0  0  0  0
 40 41  1  0  0  0  0
 40 49  2  0  0  0  0
 41 42  1  0  0  0  0
 41 43  2  0  0  0  0
 43 44  1  0  0  0  0
 43 45  1  0  0  0  0
 45 46  1  0  0  0  0
 45 47  2  0  0  0  0
 47 48  1  0  0  0  0
 47 49  1  0  0  0  0
 49 50  1  0  0  0  0
 51 52  2  0  0  0  0
 51 55  1  0  0  0  0
 52 53  1  0  0  0  0
 52132  1  0  0  0  0
 53 54  2  0  0  0  0
 53133  1  0  0  0  0
 54 55  1  0  0  0  0
 54 56  1  0  0  0  0
 55134  1  0  0  0  0
 56 57  1  0  0  0  0
 56 68  2  0  0  0  0
 57 58  1  0  0  0  0
 57 66  2  0  0  0  0
 58 59  1  0  0  0  0
 58 60  2  0  0  0  0
 60 61  1  0  0  0  0
 60 62  1  0  0  0  0
 62 63  1  0  0  0  0
 62 64  2  0  0  0  0
 64 65  1  0  0  0  0
 64 66  1  0  0  0  0
 66 67  1  0  0  0  0
 68 69  1  0  0  0  0
 68 89  1  0  0  0  0
 69 70  2  0  0  0  0
 70 71  1  0  0  0  0
 70 88  1  0  0  0  0
 71 72  1  0  0  0  0
 71 83  2  0  0  0  0
 72 73  1  0  0  0  0
 72 81  2  0  0  0  0
 73 74  1  0  0  0  0
 73 75  2  0  0  0  0
 75 76  1  0  0  0  0
 75 77  1  0  0  0  0
 77 78  1  0  0  0  0
 77 79  2  0  0  0  0
 79 80  1  0  0  0  0
 79 81  1  0  0  0  0
 81 82  1  0  0  0  0
 83 84  1  0  0  0  0
 83 87  1  0  0  0  0
 84 85  2  0  0  0  0
 84135  1  0  0  0  0
 85 86  1  0  0  0  0
 85136  1  0  0  0  0
 86 87  1  0  0  0  0
 87137  1  0  0  0  0
 88 89  2  0  0  0  0
 88138  1  0  0  0  0
 89139  1  0  0  0  0
 90 91  2  0  0  0  0
 90140  1  0  0  0  0
 91141  1  0  0  0  0
 92 93  1  0  0  0  0
 92142  1  0  0  0  0
 93143  1  0  0  0  0
 94 95  1  0  0  0  0
 94144  1  0  0  0  0
 95 96  1  0  0  0  0
M  END
$$$$
