1_1_819
 OpenBabel01102313193D

147159  0  0  0  0  0  0  0  0999 V2000
    1.1801    0.0065   -0.5937 C   0  0  0  0  0  0  0  0  0  0  0  0
    0.6314   -1.2546    0.0240 C   0  0  0  0  0  0  0  0  0  0  0  0
   -0.1337   -1.3846    1.0722 N   0  0  0  0  0  0  0  0  0  0  0  0
   -0.5298   -0.3464    1.8872 N   0  0  0  0  0  0  0  0  0  0  0  0
   -0.4104    0.9980    1.7416 C   0  0  0  0  0  0  0  0  0  0  0  0
   -0.6020    1.6775    0.6359 N   0  0  0  0  0  0  0  0  0  0  0  0
   -0.0040    2.9174    0.7180 C   0  0  0  0  0  0  0  0  0  0  0  0
    0.1833    3.7055   -0.4869 C   0  0  0  0  0  0  0  0  0  0  0  0
   -0.8919    3.8846   -1.3668 C   0  0  0  0  0  0  0  0  0  0  0  0
   -0.7145    4.5720   -2.5704 C   0  0  0  0  0  0  0  0  0  0  0  0
    0.5453    5.0626   -2.9068 C   0  0  0  0  0  0  0  0  0  0  0  0
    0.7681    5.9010   -4.3922 Cl  0  0  0  0  0  0  0  0  0  0  0  0
    1.6299    4.8684   -2.0526 C   0  0  0  0  0  0  0  0  0  0  0  0
    1.4499    4.1910   -0.8424 C   0  0  0  0  0  0  0  0  0  0  0  0
    0.4547    3.2591    1.9718 C   0  0  0  0  0  0  0  0  0  0  0  0
    0.1265    1.9732    3.0662 S   0  0  0  0  0  0  0  0  0  0  0  0
    1.0856   -2.4933   -0.5956 C   0  0  0  0  0  0  0  0  0  0  0  0
    0.2543   -3.4740   -1.0704 N   0  0  0  0  0  0  0  0  0  0  0  0
    0.9931   -4.3558   -1.7382 N   0  0  0  0  0  0  0  0  0  0  0  0
    2.2862   -4.0308   -1.5562 N   0  0  0  0  0  0  0  0  0  0  0  0
    3.3488   -4.7915   -2.0695 C   0  0  0  0  0  0  0  0  0  0  0  0
    3.4869   -4.9532   -3.4467 C   0  0  0  0  0  0  0  0  0  0  0  0
    4.7157   -5.4020   -3.9424 C   0  0  0  0  0  0  0  0  0  0  0  0
    5.7724   -5.7321   -3.0711 C   0  0  0  0  0  0  0  0  0  0  0  0
    7.0997   -6.0264   -3.6794 C   0  0  0  0  0  0  0  0  0  0  0  0
    7.1471   -6.4583   -4.8307 O   0  0  0  0  0  0  0  0  0  0  0  0
    8.2893   -5.7643   -3.0454 N   0  0  0  0  0  0  0  0  0  0  0  0
    8.6185   -5.2350   -1.7332 C   0  0  0  0  0  0  0  0  0  0  0  0
    9.0992   -6.3573   -0.8090 C   0  0  0  0  0  0  0  0  0  0  0  0
   10.5503   -6.7854   -1.0676 C   0  0  0  0  0  0  0  0  0  0  0  0
   11.6071   -5.6740   -0.9422 C   0  0  0  0  0  0  0  0  0  0  0  0
   11.5777   -4.8416    0.3491 C   0  0  0  0  0  0  0  0  0  0  0  0
   11.9520   -5.6314    1.5922 C   0  0  0  0  0  0  0  0  0  0  0  0
   13.3566   -6.0600    1.5871 N   0  0  0  0  0  0  0  0  0  0  0  0
   14.0215   -6.8508    2.5019 C   0  0  0  0  0  0  0  0  0  0  0  0
   15.2521   -6.8232    2.5922 O   0  0  0  0  0  0  0  0  0  0  0  0
   13.2400   -7.7465    3.3641 C   0  0  0  0  0  0  0  0  0  0  0  0
   13.5787   -8.0138    4.6938 C   0  0  0  0  0  0  0  0  0  0  0  0
   12.7182   -8.8058    5.4514 C   0  0  0  0  0  0  0  0  0  0  0  0
   11.4946   -9.2057    4.8914 C   0  0  0  0  0  0  0  0  0  0  0  0
   10.4951   -9.9532    5.6359 C   0  0  0  0  0  0  0  0  0  0  0  0
   10.0448   -9.2756    6.8738 C   0  0  0  0  0  0  0  0  0  0  0  0
   10.2569   -9.6474    8.0905 N   0  0  0  0  0  0  0  0  0  0  0  0
    9.6055   -8.7143    8.8890 C   0  0  0  0  0  0  0  0  0  0  0  0
    9.1181   -9.0744   10.1081 C   0  0  0  0  0  0  0  0  0  0  0  0
    7.8307   -8.5483   10.6987 C   0  0  0  0  0  0  0  0  0  0  0  0
    7.4863   -8.9278   12.0118 C   0  0  0  0  0  0  0  0  0  0  0  0
    8.3932   -9.5027   12.8162 F   0  0  0  0  0  0  0  0  0  0  0  0
    6.1788   -8.8221   12.4924 C   0  0  0  0  0  0  0  0  0  0  0  0
    5.8707   -9.3261   13.6947 F   0  0  0  0  0  0  0  0  0  0  0  0
    5.1844   -8.2714   11.7063 C   0  0  0  0  0  0  0  0  0  0  0  0
    3.9173   -8.2315   12.1369 F   0  0  0  0  0  0  0  0  0  0  0  0
    5.4993   -7.8092   10.4475 C   0  0  0  0  0  0  0  0  0  0  0  0
    4.5464   -7.2879    9.6614 F   0  0  0  0  0  0  0  0  0  0  0  0
    6.7894   -7.9637    9.9445 C   0  0  0  0  0  0  0  0  0  0  0  0
    6.9339   -7.6240    8.6594 F   0  0  0  0  0  0  0  0  0  0  0  0
    9.7049  -10.3187   10.5473 C   0  0  0  0  0  0  0  0  0  0  0  0
   10.9947  -10.7505   10.7921 C   0  0  0  0  0  0  0  0  0  0  0  0
   11.0371  -12.0879   10.2948 C   0  0  0  0  0  0  0  0  0  0  0  0
    9.7570  -12.4250    9.8541 C   0  0  0  0  0  0  0  0  0  0  0  0
    8.9543  -11.4608   10.4060 N   0  0  0  0  0  0  0  0  0  0  0  0
    9.2686  -13.4592    8.9724 C   0  0  0  0  0  0  0  0  0  0  0  0
   10.2362  -14.5514    8.6045 C   0  0  0  0  0  0  0  0  0  0  0  0
   10.8426  -14.6855    7.3423 C   0  0  0  0  0  0  0  0  0  0  0  0
   10.5570  -13.8402    6.3454 F   0  0  0  0  0  0  0  0  0  0  0  0
   11.8046  -15.6661    7.1005 C   0  0  0  0  0  0  0  0  0  0  0  0
   12.3591  -15.7801    5.8841 F   0  0  0  0  0  0  0  0  0  0  0  0
   12.2154  -16.5019    8.1248 C   0  0  0  0  0  0  0  0  0  0  0  0
   13.1683  -17.4187    7.9055 F   0  0  0  0  0  0  0  0  0  0  0  0
   11.6561  -16.3685    9.3851 C   0  0  0  0  0  0  0  0  0  0  0  0
   12.0840  -17.1415   10.3926 F   0  0  0  0  0  0  0  0  0  0  0  0
   10.6697  -15.4147    9.6184 C   0  0  0  0  0  0  0  0  0  0  0  0
   10.1663  -15.2993   10.8572 F   0  0  0  0  0  0  0  0  0  0  0  0
    8.0765  -13.4153    8.3077 C   0  0  0  0  0  0  0  0  0  0  0  0
    7.8659  -14.1867    7.1745 N   0  0  0  0  0  0  0  0  0  0  0  0
    7.0072  -13.5057    6.4672 C   0  0  0  0  0  0  0  0  0  0  0  0
    7.0979  -13.3508    4.9929 C   0  0  0  0  0  0  0  0  0  0  0  0
    5.9522  -13.6446    4.0967 C   0  0  0  0  0  0  0  0  0  0  0  0
    5.0265  -14.6544    4.4114 C   0  0  0  0  0  0  0  0  0  0  0  0
    5.2875  -15.5225    5.3996 F   0  0  0  0  0  0  0  0  0  0  0  0
    3.7851  -14.7411    3.7699 C   0  0  0  0  0  0  0  0  0  0  0  0
    2.9014  -15.6765    4.1457 F   0  0  0  0  0  0  0  0  0  0  0  0
    3.4364  -13.8243    2.7923 C   0  0  0  0  0  0  0  0  0  0  0  0
    2.2217  -13.8633    2.2272 F   0  0  0  0  0  0  0  0  0  0  0  0
    4.3371  -12.8376    2.4363 C   0  0  0  0  0  0  0  0  0  0  0  0
    3.9963  -11.9189    1.5212 F   0  0  0  0  0  0  0  0  0  0  0  0
    5.5745  -12.7481    3.0780 C   0  0  0  0  0  0  0  0  0  0  0  0
    6.3551  -11.7063    2.7564 F   0  0  0  0  0  0  0  0  0  0  0  0
    8.2056  -12.6075    4.7423 C   0  0  0  0  0  0  0  0  0  0  0  0
    8.9575  -12.4372    3.5154 C   0  0  0  0  0  0  0  0  0  0  0  0
    9.9857  -11.5941    3.7571 C   0  0  0  0  0  0  0  0  0  0  0  0
    9.8608  -11.0256    5.1079 C   0  0  0  0  0  0  0  0  0  0  0  0
    8.8718  -11.7860    5.6482 N   0  0  0  0  0  0  0  0  0  0  0  0
    6.2498  -12.5012    7.1976 C   0  0  0  0  0  0  0  0  0  0  0  0
    6.9989  -12.4270    8.3012 C   0  0  0  0  0  0  0  0  0  0  0  0
    9.3056   -7.5940    8.0375 C   0  0  0  0  0  0  0  0  0  0  0  0
    9.4265   -7.9442    6.7551 C   0  0  0  0  0  0  0  0  0  0  0  0
   11.1431   -8.8376    3.6051 C   0  0  0  0  0  0  0  0  0  0  0  0
   12.1016   -8.3055    2.7990 C   0  0  0  0  0  0  0  0  0  0  0  0
    5.5346   -5.7389   -1.6957 C   0  0  0  0  0  0  0  0  0  0  0  0
    4.3463   -5.2198   -1.1898 C   0  0  0  0  0  0  0  0  0  0  0  0
    2.3975   -2.8199   -0.9028 C   0  0  0  0  0  0  0  0  0  0  0  0
    3.6706   -2.0662   -0.7536 C   0  0  0  0  0  0  0  0  0  0  0  0
    0.7914    0.8569   -0.0734 H   0  0  0  0  0  0  0  0  0  0  0  0
    0.8905    0.0549   -1.6226 H   0  0  0  0  0  0  0  0  0  0  0  0
    2.2478    0.0028   -0.5235 H   0  0  0  0  0  0  0  0  0  0  0  0
   -0.9763   -0.6282    2.7182 H   0  0  0  0  0  0  0  0  0  0  0  0
   -1.8211    3.5064   -1.1246 H   0  0  0  0  0  0  0  0  0  0  0  0
   -1.5135    4.7157   -3.2076 H   0  0  0  0  0  0  0  0  0  0  0  0
    2.5633    5.2236   -2.3127 H   0  0  0  0  0  0  0  0  0  0  0  0
    2.2519    4.0480   -0.2089 H   0  0  0  0  0  0  0  0  0  0  0  0
    0.9215    4.1466    2.2157 H   0  0  0  0  0  0  0  0  0  0  0  0
    2.7025   -4.7471   -4.0848 H   0  0  0  0  0  0  0  0  0  0  0  0
    4.8501   -5.4926   -4.9616 H   0  0  0  0  0  0  0  0  0  0  0  0
    9.0800   -5.9788   -3.5913 H   0  0  0  0  0  0  0  0  0  0  0  0
    7.7489   -4.7777   -1.3094 H   0  0  0  0  0  0  0  0  0  0  0  0
    9.4009   -4.5125   -1.8371 H   0  0  0  0  0  0  0  0  0  0  0  0
    8.4651   -7.2074   -0.9507 H   0  0  0  0  0  0  0  0  0  0  0  0
    9.0562   -5.9806    0.1916 H   0  0  0  0  0  0  0  0  0  0  0  0
   10.6045   -7.1798   -2.0608 H   0  0  0  0  0  0  0  0  0  0  0  0
   10.7844   -7.4975   -0.3041 H   0  0  0  0  0  0  0  0  0  0  0  0
   11.4721   -5.0029   -1.7646 H   0  0  0  0  0  0  0  0  0  0  0  0
   12.5498   -6.1800   -0.9312 H   0  0  0  0  0  0  0  0  0  0  0  0
   10.5886   -4.4548    0.4795 H   0  0  0  0  0  0  0  0  0  0  0  0
   12.3072   -4.0667    0.2389 H   0  0  0  0  0  0  0  0  0  0  0  0
   11.3290   -6.4996    1.6472 H   0  0  0  0  0  0  0  0  0  0  0  0
   11.8116   -4.9908    2.4377 H   0  0  0  0  0  0  0  0  0  0  0  0
   13.8967   -5.7400    0.8288 H   0  0  0  0  0  0  0  0  0  0  0  0
   14.4456   -7.6335    5.1047 H   0  0  0  0  0  0  0  0  0  0  0  0
   12.9761   -9.0936    6.4083 H   0  0  0  0  0  0  0  0  0  0  0  0
   11.7605  -10.2212   11.2375 H   0  0  0  0  0  0  0  0  0  0  0  0
   11.8687  -12.6983   10.2663 H   0  0  0  0  0  0  0  0  0  0  0  0
    8.0082  -11.5676   10.6566 H   0  0  0  0  0  0  0  0  0  0  0  0
    8.7440  -12.8842    2.6101 H   0  0  0  0  0  0  0  0  0  0  0  0
   10.7458  -11.3808    3.0924 H   0  0  0  0  0  0  0  0  0  0  0  0
    8.6442  -11.7581    6.6056 H   0  0  0  0  0  0  0  0  0  0  0  0
    5.3882  -11.9953    6.9394 H   0  0  0  0  0  0  0  0  0  0  0  0
    6.8357  -11.7495    9.0623 H   0  0  0  0  0  0  0  0  0  0  0  0
    9.0359   -6.6551    8.3702 H   0  0  0  0  0  0  0  0  0  0  0  0
    9.1582   -7.4214    5.9067 H   0  0  0  0  0  0  0  0  0  0  0  0
   10.1769   -8.9635    3.2649 H   0  0  0  0  0  0  0  0  0  0  0  0
   11.9831   -8.3174    1.7739 H   0  0  0  0  0  0  0  0  0  0  0  0
    6.2411   -6.1295   -1.0527 H   0  0  0  0  0  0  0  0  0  0  0  0
    4.2027   -5.1516   -0.1701 H   0  0  0  0  0  0  0  0  0  0  0  0
    3.4887   -1.1630   -0.2096 H   0  0  0  0  0  0  0  0  0  0  0  0
    4.0593   -1.8274   -1.7215 H   0  0  0  0  0  0  0  0  0  0  0  0
    4.3799   -2.6658   -0.2224 H   0  0  0  0  0  0  0  0  0  0  0  0
  1  2  1  0  0  0  0
  1104  1  0  0  0  0
  1105  1  0  0  0  0
  1106  1  0  0  0  0
  2  3  2  0  0  0  0
  2 17  1  0  0  0  0
  3  4  1  0  0  0  0
  4  5  1  0  0  0  0
  4107  1  0  0  0  0
  5  6  2  0  0  0  0
  5 16  1  0  0  0  0
  6  7  1  0  0  0  0
  7  8  1  0  0  0  0
  7 15  2  0  0  0  0
  8  9  1  0  0  0  0
  8 14  2  0  0  0  0
  9 10  2  0  0  0  0
  9108  1  0  0  0  0
 10 11  1  0  0  0  0
 10109  1  0  0  0  0
 11 12  1  0  0  0  0
 11 13  2  0  0  0  0
 13 14  1  0  0  0  0
 13110  1  0  0  0  0
 14111  1  0  0  0  0
 15 16  1  0  0  0  0
 15112  1  0  0  0  0
 17 18  1  0  0  0  0
 17102  2  0  0  0  0
 18 19  2  0  0  0  0
 19 20  1  0  0  0  0
 20 21  1  0  0  0  0
 20102  1  0  0  0  0
 21 22  1  0  0  0  0
 21101  2  0  0  0  0
 22 23  2  0  0  0  0
 22113  1  0  0  0  0
 23 24  1  0  0  0  0
 23114  1  0  0  0  0
 24 25  1  0  0  0  0
 24100  2  0  0  0  0
 25 26  2  0  0  0  0
 25 27  1  0  0  0  0
 27 28  1  0  0  0  0
 27115  1  0  0  0  0
 28 29  1  0  0  0  0
 28116  1  0  0  0  0
 28117  1  0  0  0  0
 29 30  1  0  0  0  0
 29118  1  0  0  0  0
 29119  1  0  0  0  0
 30 31  1  0  0  0  0
 30120  1  0  0  0  0
 30121  1  0  0  0  0
 31 32  1  0  0  0  0
 31122  1  0  0  0  0
 31123  1  0  0  0  0
 32 33  1  0  0  0  0
 32124  1  0  0  0  0
 32125  1  0  0  0  0
 33 34  1  0  0  0  0
 33126  1  0  0  0  0
 33127  1  0  0  0  0
 34 35  1  0  0  0  0
 34128  1  0  0  0  0
 35 36  2  0  0  0  0
 35 37  1  0  0  0  0
 37 38  1  0  0  0  0
 37 99  2  0  0  0  0
 38 39  2  0  0  0  0
 38129  1  0  0  0  0
 39 40  1  0  0  0  0
 39130  1  0  0  0  0
 40 41  1  0  0  0  0
 40 98  2  0  0  0  0
 41 42  1  0  0  0  0
 41 92  2  0  0  0  0
 42 43  2  0  0  0  0
 42 97  1  0  0  0  0
 43 44  1  0  0  0  0
 44 45  2  0  0  0  0
 44 96  1  0  0  0  0
 45 46  1  0  0  0  0
 45 57  1  0  0  0  0
 46 47  1  0  0  0  0
 46 55  2  0  0  0  0
 47 48  1  0  0  0  0
 47 49  2  0  0  0  0
 49 50  1  0  0  0  0
 49 51  1  0  0  0  0
 51 52  1  0  0  0  0
 51 53  2  0  0  0  0
 53 54  1  0  0  0  0
 53 55  1  0  0  0  0
 55 56  1  0  0  0  0
 57 58  2  0  0  0  0
 57 61  1  0  0  0  0
 58 59  1  0  0  0  0
 58131  1  0  0  0  0
 59 60  2  0  0  0  0
 59132  1  0  0  0  0
 60 61  1  0  0  0  0
 60 62  1  0  0  0  0
 61133  1  0  0  0  0
 62 63  1  0  0  0  0
 62 74  2  0  0  0  0
 63 64  1  0  0  0  0
 63 72  2  0  0  0  0
 64 65  1  0  0  0  0
 64 66  2  0  0  0  0
 66 67  1  0  0  0  0
 66 68  1  0  0  0  0
 68 69  1  0  0  0  0
 68 70  2  0  0  0  0
 70 71  1  0  0  0  0
 70 72  1  0  0  0  0
 72 73  1  0  0  0  0
 74 75  1  0  0  0  0
 74 95  1  0  0  0  0
 75 76  2  0  0  0  0
 76 77  1  0  0  0  0
 76 94  1  0  0  0  0
 77 78  1  0  0  0  0
 77 89  2  0  0  0  0
 78 79  1  0  0  0  0
 78 87  2  0  0  0  0
 79 80  1  0  0  0  0
 79 81  2  0  0  0  0
 81 82  1  0  0  0  0
 81 83  1  0  0  0  0
 83 84  1  0  0  0  0
 83 85  2  0  0  0  0
 85 86  1  0  0  0  0
 85 87  1  0  0  0  0
 87 88  1  0  0  0  0
 89 90  1  0  0  0  0
 89 93  1  0  0  0  0
 90 91  2  0  0  0  0
 90134  1  0  0  0  0
 91 92  1  0  0  0  0
 91135  1  0  0  0  0
 92 93  1  0  0  0  0
 93136  1  0  0  0  0
 94 95  2  0  0  0  0
 94137  1  0  0  0  0
 95138  1  0  0  0  0
 96 97  2  0  0  0  0
 96139  1  0  0  0  0
 97140  1  0  0  0  0
 98 99  1  0  0  0  0
 98141  1  0  0  0  0
 99142  1  0  0  0  0
100101  1  0  0  0  0
100143  1  0  0  0  0
101144  1  0  0  0  0
102103  1  0  0  0  0
103145  1  0  0  0  0
103146  1  0  0  0  0
103147  1  0  0  0  0
M  END
$$$$
