1_1_2604
 OpenBabel01102313203D

149160  0  0  0  0  0  0  0  0999 V2000
    1.9177   -0.1643   -0.0916 C   0  0  0  0  0  0  0  0  0  0  0  0
    1.2487    1.1186    0.4510 C   0  0  0  0  0  0  0  0  0  0  0  0
    1.3876    2.1804   -0.6617 C   0  0  0  0  0  0  0  0  0  0  0  0
   -0.2389    0.8102    0.6976 C   0  0  0  0  0  0  0  0  0  0  0  0
    1.7948    1.5919    1.8053 C   0  0  0  0  0  0  0  0  0  0  0  0
    1.9148    2.9669    2.1420 C   0  0  0  0  0  0  0  0  0  0  0  0
    2.1890    3.4005    3.4575 C   0  0  0  0  0  0  0  0  0  0  0  0
    2.1139    4.7784    3.7948 N   0  0  0  0  0  0  0  0  0  0  0  0
    2.1859    5.3042    5.1043 C   0  0  0  0  0  0  0  0  0  0  0  0
    3.4231    5.1026    5.7734 C   0  0  0  0  0  0  0  0  0  0  0  0
    3.6012    5.3928    7.1218 C   0  0  0  0  0  0  0  0  0  0  0  0
    2.5452    5.9251    7.8373 C   0  0  0  0  0  0  0  0  0  0  0  0
    1.3360    6.1939    7.1863 C   0  0  0  0  0  0  0  0  0  0  0  0
    1.1205    5.9027    5.8126 C   0  0  0  0  0  0  0  0  0  0  0  0
   -0.2322    6.3634    5.3294 C   0  0  0  0  0  0  0  0  0  0  0  0
   -0.7006    7.3868    5.8426 O   0  0  0  0  0  0  0  0  0  0  0  0
   -1.0439    5.7428    4.4061 N   0  0  0  0  0  0  0  0  0  0  0  0
   -0.8126    4.5839    3.5897 C   0  0  0  0  0  0  0  0  0  0  0  0
   -2.0240    3.7411    3.2055 C   0  0  0  0  0  0  0  0  0  0  0  0
   -3.1365    4.3462    2.3453 C   0  0  0  0  0  0  0  0  0  0  0  0
   -2.7798    5.1211    1.0719 C   0  0  0  0  0  0  0  0  0  0  0  0
   -1.8877    4.4460    0.0275 C   0  0  0  0  0  0  0  0  0  0  0  0
   -2.3524    3.1125   -0.5637 C   0  0  0  0  0  0  0  0  0  0  0  0
   -3.4587    3.1790   -1.4994 N   0  0  0  0  0  0  0  0  0  0  0  0
   -3.6074    2.5795   -2.7392 C   0  0  0  0  0  0  0  0  0  0  0  0
   -4.6529    2.7079   -3.3573 O   0  0  0  0  0  0  0  0  0  0  0  0
   -2.4850    1.8303   -3.3681 C   0  0  0  0  0  0  0  0  0  0  0  0
   -1.8289    0.7905   -2.7171 C   0  0  0  0  0  0  0  0  0  0  0  0
   -0.6570    0.2454   -3.2645 C   0  0  0  0  0  0  0  0  0  0  0  0
   -0.1748    0.6529   -4.5205 C   0  0  0  0  0  0  0  0  0  0  0  0
    1.1565    0.1915   -5.0479 C   0  0  0  0  0  0  0  0  0  0  0  0
    2.2188    1.2010   -5.4445 C   0  0  0  0  0  0  0  0  0  0  0  0
    3.3717    1.0117   -6.0451 N   0  0  0  0  0  0  0  0  0  0  0  0
    3.9319    2.2739   -6.2164 C   0  0  0  0  0  0  0  0  0  0  0  0
    5.1288    2.6167   -6.7561 C   0  0  0  0  0  0  0  0  0  0  0  0
    5.4632    4.0801   -6.8589 C   0  0  0  0  0  0  0  0  0  0  0  0
    5.7841    4.8453   -5.7284 C   0  0  0  0  0  0  0  0  0  0  0  0
    5.7132    4.3027   -4.5037 F   0  0  0  0  0  0  0  0  0  0  0  0
    6.1570    6.1822   -5.8498 C   0  0  0  0  0  0  0  0  0  0  0  0
    6.4230    6.9035   -4.7520 F   0  0  0  0  0  0  0  0  0  0  0  0
    6.2505    6.7697   -7.1027 C   0  0  0  0  0  0  0  0  0  0  0  0
    6.6282    8.0504   -7.2178 F   0  0  0  0  0  0  0  0  0  0  0  0
    5.9510    6.0293   -8.2356 C   0  0  0  0  0  0  0  0  0  0  0  0
    6.0603    6.5887   -9.4488 F   0  0  0  0  0  0  0  0  0  0  0  0
    5.5468    4.7021   -8.1156 C   0  0  0  0  0  0  0  0  0  0  0  0
    5.2650    4.0129   -9.2316 F   0  0  0  0  0  0  0  0  0  0  0  0
    6.1115    1.6832   -7.2469 C   0  0  0  0  0  0  0  0  0  0  0  0
    7.3538    1.9519   -7.7994 C   0  0  0  0  0  0  0  0  0  0  0  0
    7.9505    0.7399   -8.1575 C   0  0  0  0  0  0  0  0  0  0  0  0
    7.1043   -0.2879   -7.7791 C   0  0  0  0  0  0  0  0  0  0  0  0
    5.9761    0.3045   -7.2301 N   0  0  0  0  0  0  0  0  0  0  0  0
    7.3012   -1.7082   -7.9128 C   0  0  0  0  0  0  0  0  0  0  0  0
    8.5680   -2.1828   -8.5668 C   0  0  0  0  0  0  0  0  0  0  0  0
    8.5657   -2.7464   -9.8512 C   0  0  0  0  0  0  0  0  0  0  0  0
    7.4077   -2.9457  -10.4985 F   0  0  0  0  0  0  0  0  0  0  0  0
    9.7542   -3.1329  -10.4671 C   0  0  0  0  0  0  0  0  0  0  0  0
    9.7238   -3.7020  -11.6802 F   0  0  0  0  0  0  0  0  0  0  0  0
   10.9681   -2.9359   -9.8260 C   0  0  0  0  0  0  0  0  0  0  0  0
   12.1113   -3.2941  -10.4268 F   0  0  0  0  0  0  0  0  0  0  0  0
   10.9958   -2.3706   -8.5605 C   0  0  0  0  0  0  0  0  0  0  0  0
   12.1687   -2.1650   -7.9453 F   0  0  0  0  0  0  0  0  0  0  0  0
    9.8074   -2.0098   -7.9303 C   0  0  0  0  0  0  0  0  0  0  0  0
    9.8683   -1.4687   -6.7042 F   0  0  0  0  0  0  0  0  0  0  0  0
    6.4240   -2.6428   -7.4735 C   0  0  0  0  0  0  0  0  0  0  0  0
    5.2066   -2.4553   -6.8303 N   0  0  0  0  0  0  0  0  0  0  0  0
    4.7173   -3.6530   -6.6289 C   0  0  0  0  0  0  0  0  0  0  0  0
    3.4274   -4.0555   -5.9648 C   0  0  0  0  0  0  0  0  0  0  0  0
    3.1029   -5.4954   -5.7706 C   0  0  0  0  0  0  0  0  0  0  0  0
    3.8386   -6.2822   -4.8733 C   0  0  0  0  0  0  0  0  0  0  0  0
    4.8751   -5.7493   -4.2096 F   0  0  0  0  0  0  0  0  0  0  0  0
    3.5348   -7.6283   -4.6796 C   0  0  0  0  0  0  0  0  0  0  0  0
    4.2767   -8.3667   -3.8430 F   0  0  0  0  0  0  0  0  0  0  0  0
    2.4725   -8.2069   -5.3578 C   0  0  0  0  0  0  0  0  0  0  0  0
    2.1694   -9.4966   -5.1576 F   0  0  0  0  0  0  0  0  0  0  0  0
    1.7285   -7.4481   -6.2481 C   0  0  0  0  0  0  0  0  0  0  0  0
    0.6925   -7.9988   -6.8953 F   0  0  0  0  0  0  0  0  0  0  0  0
    2.0525   -6.1112   -6.4674 C   0  0  0  0  0  0  0  0  0  0  0  0
    1.3240   -5.4060   -7.3451 F   0  0  0  0  0  0  0  0  0  0  0  0
    2.5531   -3.1132   -5.5547 C   0  0  0  0  0  0  0  0  0  0  0  0
    1.2482   -3.3859   -4.9572 C   0  0  0  0  0  0  0  0  0  0  0  0
    0.5942   -2.2284   -4.7742 C   0  0  0  0  0  0  0  0  0  0  0  0
    1.4647   -1.1187   -5.1549 C   0  0  0  0  0  0  0  0  0  0  0  0
    2.6086   -1.7404   -5.6091 N   0  0  0  0  0  0  0  0  0  0  0  0
    5.5678   -4.7392   -7.1422 C   0  0  0  0  0  0  0  0  0  0  0  0
    6.6114   -4.0702   -7.6132 C   0  0  0  0  0  0  0  0  0  0  0  0
    2.9838    3.2258   -5.6788 C   0  0  0  0  0  0  0  0  0  0  0  0
    1.9456    2.6117   -5.1290 C   0  0  0  0  0  0  0  0  0  0  0  0
   -0.9570    1.5714   -5.2415 C   0  0  0  0  0  0  0  0  0  0  0  0
   -2.0852    2.1754   -4.6616 C   0  0  0  0  0  0  0  0  0  0  0  0
    2.4115    2.4269    4.4401 C   0  0  0  0  0  0  0  0  0  0  0  0
    2.3396    1.0852    4.1177 C   0  0  0  0  0  0  0  0  0  0  0  0
    2.0284    0.6836    2.8366 C   0  0  0  0  0  0  0  0  0  0  0  0
    1.9086   -0.6745    2.7208 O   0  0  0  0  0  0  0  0  0  0  0  0
    2.2460   -1.2250    4.0113 C   0  0  0  0  0  0  0  0  0  0  0  0
    2.5259   -0.0894    5.0130 C   0  0  0  0  0  0  0  0  0  0  0  0
    3.9642   -0.1375    5.5337 C   0  0  0  0  0  0  0  0  0  0  0  0
    1.5246   -0.1098    6.1713 C   0  0  0  0  0  0  0  0  0  0  0  0
    1.4810   -0.4233   -1.0334 H   0  0  0  0  0  0  0  0  0  0  0  0
    1.7693   -0.9649    0.6026 H   0  0  0  0  0  0  0  0  0  0  0  0
    2.9661    0.0070   -0.2197 H   0  0  0  0  0  0  0  0  0  0  0  0
    0.9910    1.7923   -1.5766 H   0  0  0  0  0  0  0  0  0  0  0  0
    2.4210    2.4236   -0.7957 H   0  0  0  0  0  0  0  0  0  0  0  0
    0.8471    3.0610   -0.3838 H   0  0  0  0  0  0  0  0  0  0  0  0
   -0.6886    0.4716   -0.2124 H   0  0  0  0  0  0  0  0  0  0  0  0
   -0.7360    1.6964    1.0329 H   0  0  0  0  0  0  0  0  0  0  0  0
   -0.3263    0.0482    1.4437 H   0  0  0  0  0  0  0  0  0  0  0  0
    1.7975    3.6735    1.3991 H   0  0  0  0  0  0  0  0  0  0  0  0
    2.0026    5.4193    3.0558 H   0  0  0  0  0  0  0  0  0  0  0  0
    4.2208    4.7261    5.2378 H   0  0  0  0  0  0  0  0  0  0  0  0
    4.5078    5.2135    7.5811 H   0  0  0  0  0  0  0  0  0  0  0  0
    2.6478    6.1230    8.8449 H   0  0  0  0  0  0  0  0  0  0  0  0
    0.5682    6.6218    7.7270 H   0  0  0  0  0  0  0  0  0  0  0  0
   -1.9267    6.1618    4.2860 H   0  0  0  0  0  0  0  0  0  0  0  0
   -0.1349    3.9481    4.1201 H   0  0  0  0  0  0  0  0  0  0  0  0
   -0.4451    4.9720    2.6628 H   0  0  0  0  0  0  0  0  0  0  0  0
   -2.4797    3.4209    4.1191 H   0  0  0  0  0  0  0  0  0  0  0  0
   -1.6071    2.9860    2.5723 H   0  0  0  0  0  0  0  0  0  0  0  0
   -3.6831    5.0180    2.9737 H   0  0  0  0  0  0  0  0  0  0  0  0
   -3.6579    3.4882    1.9753 H   0  0  0  0  0  0  0  0  0  0  0  0
   -2.2835    6.0184    1.3776 H   0  0  0  0  0  0  0  0  0  0  0  0
   -3.7175    5.2456    0.5718 H   0  0  0  0  0  0  0  0  0  0  0  0
   -0.9355    4.2761    0.4850 H   0  0  0  0  0  0  0  0  0  0  0  0
   -1.8917    5.1211   -0.8026 H   0  0  0  0  0  0  0  0  0  0  0  0
   -2.6483    2.4809    0.2477 H   0  0  0  0  0  0  0  0  0  0  0  0
   -1.5213    2.7436   -1.1278 H   0  0  0  0  0  0  0  0  0  0  0  0
   -4.2185    3.7339   -1.2096 H   0  0  0  0  0  0  0  0  0  0  0  0
   -2.2044    0.4194   -1.8304 H   0  0  0  0  0  0  0  0  0  0  0  0
   -0.1377   -0.4707   -2.7329 H   0  0  0  0  0  0  0  0  0  0  0  0
    7.7682    2.8886   -7.9251 H   0  0  0  0  0  0  0  0  0  0  0  0
    8.8646    0.6302   -8.6238 H   0  0  0  0  0  0  0  0  0  0  0  0
    5.1952   -0.1826   -6.8805 H   0  0  0  0  0  0  0  0  0  0  0  0
    0.8863   -4.3213   -4.7141 H   0  0  0  0  0  0  0  0  0  0  0  0
   -0.3710   -2.1367   -4.4205 H   0  0  0  0  0  0  0  0  0  0  0  0
    3.3928   -1.2468   -5.9417 H   0  0  0  0  0  0  0  0  0  0  0  0
    5.3965   -5.7569   -7.1369 H   0  0  0  0  0  0  0  0  0  0  0  0
    7.4485   -4.5107   -8.0258 H   0  0  0  0  0  0  0  0  0  0  0  0
    3.1008    4.2504   -5.7183 H   0  0  0  0  0  0  0  0  0  0  0  0
    1.1502    3.0186   -4.6125 H   0  0  0  0  0  0  0  0  0  0  0  0
   -0.6984    1.8060   -6.2127 H   0  0  0  0  0  0  0  0  0  0  0  0
   -2.6217    2.8780   -5.1941 H   0  0  0  0  0  0  0  0  0  0  0  0
    2.6297    2.7126    5.4074 H   0  0  0  0  0  0  0  0  0  0  0  0
    3.1182   -1.8377    3.9178 H   0  0  0  0  0  0  0  0  0  0  0  0
    1.4256   -1.8124    4.3674 H   0  0  0  0  0  0  0  0  0  0  0  0
    4.6435   -0.1222    4.7071 H   0  0  0  0  0  0  0  0  0  0  0  0
    4.1094   -1.0349    6.0981 H   0  0  0  0  0  0  0  0  0  0  0  0
    4.1454    0.7110    6.1600 H   0  0  0  0  0  0  0  0  0  0  0  0
    0.5284   -0.0755    5.7823 H   0  0  0  0  0  0  0  0  0  0  0  0
    1.6908    0.7388    6.8015 H   0  0  0  0  0  0  0  0  0  0  0  0
    1.6548   -1.0070    6.7396 H   0  0  0  0  0  0  0  0  0  0  0  0
  1  2  1  0  0  0  0
  1 98  1  0  0  0  0
  1 99  1  0  0  0  0
  1100  1  0  0  0  0
  2  3  1  0  0  0  0
  2  4  1  0  0  0  0
  2  5  1  0  0  0  0
  3101  1  0  0  0  0
  3102  1  0  0  0  0
  3103  1  0  0  0  0
  4104  1  0  0  0  0
  4105  1  0  0  0  0
  4106  1  0  0  0  0
  5  6  1  0  0  0  0
  5 92  2  0  0  0  0
  6  7  2  0  0  0  0
  6107  1  0  0  0  0
  7  8  1  0  0  0  0
  7 90  1  0  0  0  0
  8  9  1  0  0  0  0
  8108  1  0  0  0  0
  9 10  1  0  0  0  0
  9 14  2  0  0  0  0
 10 11  2  0  0  0  0
 10109  1  0  0  0  0
 11 12  1  0  0  0  0
 11110  1  0  0  0  0
 12 13  2  0  0  0  0
 12111  1  0  0  0  0
 13 14  1  0  0  0  0
 13112  1  0  0  0  0
 14 15  1  0  0  0  0
 15 16  2  0  0  0  0
 15 17  1  0  0  0  0
 17 18  1  0  0  0  0
 17113  1  0  0  0  0
 18 19  1  0  0  0  0
 18114  1  0  0  0  0
 18115  1  0  0  0  0
 19 20  1  0  0  0  0
 19116  1  0  0  0  0
 19117  1  0  0  0  0
 20 21  1  0  0  0  0
 20118  1  0  0  0  0
 20119  1  0  0  0  0
 21 22  1  0  0  0  0
 21120  1  0  0  0  0
 21121  1  0  0  0  0
 22 23  1  0  0  0  0
 22122  1  0  0  0  0
 22123  1  0  0  0  0
 23 24  1  0  0  0  0
 23124  1  0  0  0  0
 23125  1  0  0  0  0
 24 25  1  0  0  0  0
 24126  1  0  0  0  0
 25 26  2  0  0  0  0
 25 27  1  0  0  0  0
 27 28  1  0  0  0  0
 27 89  2  0  0  0  0
 28 29  2  0  0  0  0
 28127  1  0  0  0  0
 29 30  1  0  0  0  0
 29128  1  0  0  0  0
 30 31  1  0  0  0  0
 30 88  2  0  0  0  0
 31 32  1  0  0  0  0
 31 82  2  0  0  0  0
 32 33  2  0  0  0  0
 32 87  1  0  0  0  0
 33 34  1  0  0  0  0
 34 35  2  0  0  0  0
 34 86  1  0  0  0  0
 35 36  1  0  0  0  0
 35 47  1  0  0  0  0
 36 37  1  0  0  0  0
 36 45  2  0  0  0  0
 37 38  1  0  0  0  0
 37 39  2  0  0  0  0
 39 40  1  0  0  0  0
 39 41  1  0  0  0  0
 41 42  1  0  0  0  0
 41 43  2  0  0  0  0
 43 44  1  0  0  0  0
 43 45  1  0  0  0  0
 45 46  1  0  0  0  0
 47 48  2  0  0  0  0
 47 51  1  0  0  0  0
 48 49  1  0  0  0  0
 48129  1  0  0  0  0
 49 50  2  0  0  0  0
 49130  1  0  0  0  0
 50 51  1  0  0  0  0
 50 52  1  0  0  0  0
 51131  1  0  0  0  0
 52 53  1  0  0  0  0
 52 64  2  0  0  0  0
 53 54  1  0  0  0  0
 53 62  2  0  0  0  0
 54 55  1  0  0  0  0
 54 56  2  0  0  0  0
 56 57  1  0  0  0  0
 56 58  1  0  0  0  0
 58 59  1  0  0  0  0
 58 60  2  0  0  0  0
 60 61  1  0  0  0  0
 60 62  1  0  0  0  0
 62 63  1  0  0  0  0
 64 65  1  0  0  0  0
 64 85  1  0  0  0  0
 65 66  2  0  0  0  0
 66 67  1  0  0  0  0
 66 84  1  0  0  0  0
 67 68  1  0  0  0  0
 67 79  2  0  0  0  0
 68 69  1  0  0  0  0
 68 77  2  0  0  0  0
 69 70  1  0  0  0  0
 69 71  2  0  0  0  0
 71 72  1  0  0  0  0
 71 73  1  0  0  0  0
 73 74  1  0  0  0  0
 73 75  2  0  0  0  0
 75 76  1  0  0  0  0
 75 77  1  0  0  0  0
 77 78  1  0  0  0  0
 79 80  1  0  0  0  0
 79 83  1  0  0  0  0
 80 81  2  0  0  0  0
 80132  1  0  0  0  0
 81 82  1  0  0  0  0
 81133  1  0  0  0  0
 82 83  1  0  0  0  0
 83134  1  0  0  0  0
 84 85  2  0  0  0  0
 84135  1  0  0  0  0
 85136  1  0  0  0  0
 86 87  2  0  0  0  0
 86137  1  0  0  0  0
 87138  1  0  0  0  0
 88 89  1  0  0  0  0
 88139  1  0  0  0  0
 89140  1  0  0  0  0
 90 91  2  0  0  0  0
 90141  1  0  0  0  0
 91 92  1  0  0  0  0
 91 95  1  0  0  0  0
 92 93  1  0  0  0  0
 93 94  1  0  0  0  0
 94 95  1  0  0  0  0
 94142  1  0  0  0  0
 94143  1  0  0  0  0
 95 96  1  0  0  0  0
 95 97  1  0  0  0  0
 96144  1  0  0  0  0
 96145  1  0  0  0  0
 96146  1  0  0  0  0
 97147  1  0  0  0  0
 97148  1  0  0  0  0
 97149  1  0  0  0  0
M  END
$$$$
