1_1_3015
 OpenBabel01102313213D

153166  0  0  1  0  0  0  0  0999 V2000
    1.2719    0.5284   -0.4013 O   0  0  0  0  0  0  0  0  0  0  0  0
    2.4039    0.0701   -0.2991 C   0  0  0  0  0  0  0  0  0  0  0  0
    3.2189    0.4334    0.8768 C   0  0  0  0  0  0  0  0  0  0  0  0
    4.5573    0.5854    1.0038 C   0  0  0  0  0  0  0  0  0  0  0  0
    5.1667    1.2455    2.2767 C   0  0  1  0  0  0  0  0  0  0  0  0
    4.8951    2.7160    2.1098 C   0  0  0  0  0  0  0  0  0  0  0  0
    3.9394    3.3594    2.7932 C   0  0  0  0  0  0  0  0  0  0  0  0
    3.6603    4.6861    2.5328 O   0  0  0  0  0  0  0  0  0  0  0  0
    3.1584    2.6679    3.8717 C   0  0  0  0  0  0  0  0  0  0  0  0
    2.2796    3.2794    4.4686 O   0  0  0  0  0  0  0  0  0  0  0  0
    3.5309    1.2756    4.2276 C   0  0  0  0  0  0  0  0  0  0  0  0
    4.4586    0.6679    3.4824 C   0  0  0  0  0  0  0  0  0  0  0  0
    5.0774   -0.6572    3.7451 C   0  0  0  0  0  0  0  0  0  0  0  0
    4.5996   -1.5741    4.3685 O   0  0  0  0  0  0  0  0  0  0  0  0
    6.4422   -0.5714    3.1518 C   0  0  0  0  0  0  0  0  0  0  0  0
    7.3982   -1.4968    3.2735 C   0  0  0  0  0  0  0  0  0  0  0  0
    8.7931   -1.0906    3.0439 C   0  0  0  0  0  0  0  0  0  0  0  0
    9.6663   -1.9313    2.3362 C   0  0  0  0  0  0  0  0  0  0  0  0
   11.0136   -1.5861    2.2297 C   0  0  0  0  0  0  0  0  0  0  0  0
   11.9102   -2.3523    1.5371 O   0  0  0  0  0  0  0  0  0  0  0  0
   11.5039   -0.4410    2.8516 C   0  0  0  0  0  0  0  0  0  0  0  0
   12.8296   -0.1262    2.7725 O   0  0  0  0  0  0  0  0  0  0  0  0
   10.6597    0.3929    3.5621 C   0  0  0  0  0  0  0  0  0  0  0  0
    9.2962    0.0985    3.6183 C   0  0  0  0  0  0  0  0  0  0  0  0
    8.5487    0.9646    4.3704 O   0  0  0  0  0  0  0  0  0  0  0  0
    7.3726    1.5967    3.7982 C   0  0  1  0  0  0  0  0  0  0  0  0
    7.7191    3.0495    3.5120 C   0  0  0  0  0  0  0  0  0  0  0  0
    6.8961    4.0731    4.0164 C   0  0  0  0  0  0  0  0  0  0  0  0
    7.0814    5.4027    3.6341 C   0  0  0  0  0  0  0  0  0  0  0  0
    8.1587    5.7356    2.8245 C   0  0  0  0  0  0  0  0  0  0  0  0
    8.3342    7.0241    2.4121 O   0  0  0  0  0  0  0  0  0  0  0  0
    9.0661    4.7550    2.4384 C   0  0  0  0  0  0  0  0  0  0  0  0
   10.1827    5.1026    1.7337 O   0  0  0  0  0  0  0  0  0  0  0  0
    8.8336    3.4145    2.7447 C   0  0  0  0  0  0  0  0  0  0  0  0
    6.6465    0.8361    2.6243 C   0  0  2  0  0  0  0  0  0  0  0  0
    2.9712   -0.7905   -1.1849 N   0  0  0  0  0  0  0  0  0  0  0  0
    2.3025   -1.1029   -2.4282 C   0  0  0  0  0  0  0  0  0  0  0  0
    2.7953   -0.1934   -3.5524 C   0  0  0  0  0  0  0  0  0  0  0  0
    4.3129   -0.2454   -3.7720 C   0  0  0  0  0  0  0  0  0  0  0  0
    4.8953   -1.6497   -3.9624 C   0  0  0  0  0  0  0  0  0  0  0  0
    4.2395   -2.4754   -5.0673 C   0  0  0  0  0  0  0  0  0  0  0  0
    4.2695   -1.8257   -6.4425 C   0  0  0  0  0  0  0  0  0  0  0  0
    5.6170   -1.7044   -6.9778 N   0  0  0  0  0  0  0  0  0  0  0  0
    6.0781   -2.0573   -8.2246 C   0  0  0  0  0  0  0  0  0  0  0  0
    7.2754   -2.0271   -8.4844 O   0  0  0  0  0  0  0  0  0  0  0  0
    5.1067   -2.5243   -9.2357 C   0  0  0  0  0  0  0  0  0  0  0  0
    3.9307   -1.8066   -9.4648 C   0  0  0  0  0  0  0  0  0  0  0  0
    2.9087   -2.3882  -10.2050 C   0  0  0  0  0  0  0  0  0  0  0  0
    3.0959   -3.6368  -10.8207 C   0  0  0  0  0  0  0  0  0  0  0  0
    1.9656   -4.2725  -11.5456 C   0  0  0  0  0  0  0  0  0  0  0  0
    1.3593   -5.5562  -11.0437 C   0  0  0  0  0  0  0  0  0  0  0  0
    0.3788   -6.2617  -11.5512 N   0  0  0  0  0  0  0  0  0  0  0  0
    0.2268   -7.3610  -10.7160 C   0  0  0  0  0  0  0  0  0  0  0  0
   -0.6792   -8.3648  -10.7972 C   0  0  0  0  0  0  0  0  0  0  0  0
   -0.6151   -9.4535   -9.7655 C   0  0  0  0  0  0  0  0  0  0  0  0
   -1.0342   -9.2394   -8.4444 C   0  0  0  0  0  0  0  0  0  0  0  0
   -1.4310   -8.0197   -8.0514 F   0  0  0  0  0  0  0  0  0  0  0  0
   -1.0238  -10.2751   -7.5131 C   0  0  0  0  0  0  0  0  0  0  0  0
   -1.3982  -10.0397   -6.2478 F   0  0  0  0  0  0  0  0  0  0  0  0
   -0.6218  -11.5478   -7.8902 C   0  0  0  0  0  0  0  0  0  0  0  0
   -0.6262  -12.5461   -6.9960 F   0  0  0  0  0  0  0  0  0  0  0  0
   -0.2113  -11.7842   -9.1933 C   0  0  0  0  0  0  0  0  0  0  0  0
    0.1663  -13.0160   -9.5626 F   0  0  0  0  0  0  0  0  0  0  0  0
   -0.1962  -10.7452  -10.1203 C   0  0  0  0  0  0  0  0  0  0  0  0
    0.2094  -11.0044  -11.3724 F   0  0  0  0  0  0  0  0  0  0  0  0
   -1.6980   -8.4606  -11.8103 C   0  0  0  0  0  0  0  0  0  0  0  0
   -2.6717   -9.4325  -11.9649 C   0  0  0  0  0  0  0  0  0  0  0  0
   -3.4159   -9.1291  -13.1092 C   0  0  0  0  0  0  0  0  0  0  0  0
   -2.9352   -7.9445  -13.6427 C   0  0  0  0  0  0  0  0  0  0  0  0
   -1.8787   -7.5473  -12.8383 N   0  0  0  0  0  0  0  0  0  0  0  0
   -3.4006   -7.2304  -14.8037 C   0  0  0  0  0  0  0  0  0  0  0  0
   -4.5239   -7.8361  -15.5913 C   0  0  0  0  0  0  0  0  0  0  0  0
   -4.3013   -8.4217  -16.8460 C   0  0  0  0  0  0  0  0  0  0  0  0
   -3.0784   -8.3922  -17.3969 F   0  0  0  0  0  0  0  0  0  0  0  0
   -5.3439   -9.0130  -17.5537 C   0  0  0  0  0  0  0  0  0  0  0  0
   -5.1167   -9.5329  -18.7678 F   0  0  0  0  0  0  0  0  0  0  0  0
   -6.6187   -9.0565  -17.0088 C   0  0  0  0  0  0  0  0  0  0  0  0
   -7.6189   -9.6357  -17.6871 F   0  0  0  0  0  0  0  0  0  0  0  0
   -6.8580   -8.4948  -15.7636 C   0  0  0  0  0  0  0  0  0  0  0  0
   -8.0864   -8.5475  -15.2304 F   0  0  0  0  0  0  0  0  0  0  0  0
   -5.8236   -7.8788  -15.0652 C   0  0  0  0  0  0  0  0  0  0  0  0
   -6.0859   -7.3383  -13.8657 F   0  0  0  0  0  0  0  0  0  0  0  0
   -2.9077   -6.0444  -15.2361 C   0  0  0  0  0  0  0  0  0  0  0  0
   -1.8787   -5.2826  -14.7016 N   0  0  0  0  0  0  0  0  0  0  0  0
   -1.7547   -4.2429  -15.4894 C   0  0  0  0  0  0  0  0  0  0  0  0
   -0.7982   -3.0891  -15.3911 C   0  0  0  0  0  0  0  0  0  0  0  0
   -0.8537   -1.9606  -16.3543 C   0  0  0  0  0  0  0  0  0  0  0  0
   -1.9237   -1.0566  -16.3410 C   0  0  0  0  0  0  0  0  0  0  0  0
   -2.9378   -1.2322  -15.4812 F   0  0  0  0  0  0  0  0  0  0  0  0
   -1.9679    0.0166  -17.2282 C   0  0  0  0  0  0  0  0  0  0  0  0
   -3.0171    0.8498  -17.2161 F   0  0  0  0  0  0  0  0  0  0  0  0
   -0.9315    0.2200  -18.1275 C   0  0  0  0  0  0  0  0  0  0  0  0
   -0.9678    1.2608  -18.9704 F   0  0  0  0  0  0  0  0  0  0  0  0
    0.1406   -0.6587  -18.1545 C   0  0  0  0  0  0  0  0  0  0  0  0
    1.1517   -0.4573  -19.0103 F   0  0  0  0  0  0  0  0  0  0  0  0
    0.1718   -1.7478  -17.2876 C   0  0  0  0  0  0  0  0  0  0  0  0
    1.2183   -2.5851  -17.3381 F   0  0  0  0  0  0  0  0  0  0  0  0
    0.1276   -3.0837  -14.4143 C   0  0  0  0  0  0  0  0  0  0  0  0
    1.1313   -2.0439  -14.2105 C   0  0  0  0  0  0  0  0  0  0  0  0
    1.9250   -2.3981  -13.1894 C   0  0  0  0  0  0  0  0  0  0  0  0
    1.4435   -3.6591  -12.6242 C   0  0  0  0  0  0  0  0  0  0  0  0
    0.3809   -3.9983  -13.4223 N   0  0  0  0  0  0  0  0  0  0  0  0
   -2.6909   -4.2305  -16.6216 C   0  0  0  0  0  0  0  0  0  0  0  0
   -3.3923   -5.3340  -16.4016 C   0  0  0  0  0  0  0  0  0  0  0  0
    1.2325   -7.2482   -9.6822 C   0  0  0  0  0  0  0  0  0  0  0  0
    1.9269   -6.1260   -9.8112 C   0  0  0  0  0  0  0  0  0  0  0  0
    4.3408   -4.2767  -10.7070 C   0  0  0  0  0  0  0  0  0  0  0  0
    5.3381   -3.7345   -9.8929 C   0  0  0  0  0  0  0  0  0  0  0  0
    2.6808    0.5981    1.7419 H   0  0  0  0  0  0  0  0  0  0  0  0
    5.1816    0.2604    0.2490 H   0  0  0  0  0  0  0  0  0  0  0  0
    5.4695    3.2517    1.4404 H   0  0  0  0  0  0  0  0  0  0  0  0
    4.1332    5.1419    1.8645 H   0  0  0  0  0  0  0  0  0  0  0  0
    3.0877    0.7928    5.0247 H   0  0  0  0  0  0  0  0  0  0  0  0
    7.1641   -2.4707    3.5220 H   0  0  0  0  0  0  0  0  0  0  0  0
    9.3146   -2.7972    1.8985 H   0  0  0  0  0  0  0  0  0  0  0  0
   11.6236   -3.1317    1.1032 H   0  0  0  0  0  0  0  0  0  0  0  0
   13.4151   -0.6805    2.2951 H   0  0  0  0  0  0  0  0  0  0  0  0
   11.0339    1.2242    4.0457 H   0  0  0  0  0  0  0  0  0  0  0  0
    6.5918    1.5458    4.5281 H   0  0  0  0  0  0  0  0  0  0  0  0
    6.1424    3.8368    4.6805 H   0  0  0  0  0  0  0  0  0  0  0  0
    6.4232    6.1319    3.9506 H   0  0  0  0  0  0  0  0  0  0  0  0
    7.7239    7.6862    2.6712 H   0  0  0  0  0  0  0  0  0  0  0  0
   10.3440    6.0017    1.5251 H   0  0  0  0  0  0  0  0  0  0  0  0
    9.4843    2.6890    2.4053 H   0  0  0  0  0  0  0  0  0  0  0  0
    7.2535    1.0192    1.7624 H   0  0  0  0  0  0  0  0  0  0  0  0
    3.8411   -1.2029   -0.9791 H   0  0  0  0  0  0  0  0  0  0  0  0
    1.2485   -0.9670   -2.3035 H   0  0  0  0  0  0  0  0  0  0  0  0
    2.5188   -2.1180   -2.6884 H   0  0  0  0  0  0  0  0  0  0  0  0
    2.5233    0.8138   -3.3150 H   0  0  0  0  0  0  0  0  0  0  0  0
    2.3381   -0.5395   -4.4558 H   0  0  0  0  0  0  0  0  0  0  0  0
    4.7862    0.1969   -2.9204 H   0  0  0  0  0  0  0  0  0  0  0  0
    4.4996    0.2805   -4.6850 H   0  0  0  0  0  0  0  0  0  0  0  0
    4.7862   -2.1822   -3.0407 H   0  0  0  0  0  0  0  0  0  0  0  0
    5.9152   -1.5135   -4.2558 H   0  0  0  0  0  0  0  0  0  0  0  0
    3.2173   -2.6415   -4.7984 H   0  0  0  0  0  0  0  0  0  0  0  0
    4.8038   -3.3810   -5.1462 H   0  0  0  0  0  0  0  0  0  0  0  0
    3.8415   -0.8478   -6.3684 H   0  0  0  0  0  0  0  0  0  0  0  0
    3.7130   -2.4523   -7.1078 H   0  0  0  0  0  0  0  0  0  0  0  0
    6.2866   -1.3192   -6.3675 H   0  0  0  0  0  0  0  0  0  0  0  0
    3.8217   -0.8523   -9.0875 H   0  0  0  0  0  0  0  0  0  0  0  0
    2.0053   -1.8991  -10.3032 H   0  0  0  0  0  0  0  0  0  0  0  0
   -2.8224  -10.2418  -11.3426 H   0  0  0  0  0  0  0  0  0  0  0  0
   -4.1917   -9.6922  -13.4914 H   0  0  0  0  0  0  0  0  0  0  0  0
   -1.3368   -6.7370  -12.9762 H   0  0  0  0  0  0  0  0  0  0  0  0
    1.2164   -1.1764  -14.7629 H   0  0  0  0  0  0  0  0  0  0  0  0
    2.7442   -1.8666  -12.8556 H   0  0  0  0  0  0  0  0  0  0  0  0
   -0.1490   -4.8184  -13.2960 H   0  0  0  0  0  0  0  0  0  0  0  0
   -2.7793   -3.5437  -17.3868 H   0  0  0  0  0  0  0  0  0  0  0  0
   -4.1829   -5.6469  -16.9864 H   0  0  0  0  0  0  0  0  0  0  0  0
    1.3890   -7.9494   -8.9413 H   0  0  0  0  0  0  0  0  0  0  0  0
    2.6722   -5.7497   -9.2046 H   0  0  0  0  0  0  0  0  0  0  0  0
    4.5194   -5.1503  -11.2265 H   0  0  0  0  0  0  0  0  0  0  0  0
    6.2390   -4.2246   -9.7780 H   0  0  0  0  0  0  0  0  0  0  0  0
  1  2  2  0  0  0  0
  2  3  1  0  0  0  0
  2 36  1  0  0  0  0
  3  4  2  0  0  0  0
  3109  1  0  0  0  0
  4110  1  0  0  0  0
  5  4  1  6  0  0  0
  5  6  1  0  0  0  0
  5 12  1  0  0  0  0
  5 35  1  0  0  0  0
  6  7  2  0  0  0  0
  6111  1  0  0  0  0
  7  8  1  0  0  0  0
  7  9  1  0  0  0  0
  8112  1  0  0  0  0
  9 10  2  0  0  0  0
  9 11  1  0  0  0  0
 11 12  2  0  0  0  0
 11113  1  0  0  0  0
 12 13  1  0  0  0  0
 13 14  2  0  0  0  0
 13 15  1  0  0  0  0
 15 16  2  0  0  0  0
 15 35  1  0  0  0  0
 16 17  1  0  0  0  0
 16114  1  0  0  0  0
 17 18  1  0  0  0  0
 17 24  2  0  0  0  0
 18 19  2  0  0  0  0
 18115  1  0  0  0  0
 19 20  1  0  0  0  0
 19 21  1  0  0  0  0
 20116  1  0  0  0  0
 21 22  1  0  0  0  0
 21 23  2  0  0  0  0
 22117  1  0  0  0  0
 23 24  1  0  0  0  0
 23118  1  0  0  0  0
 24 25  1  0  0  0  0
 25 26  1  0  0  0  0
 26 27  1  0  0  0  0
 26 35  1  0  0  0  0
 26119  1  1  0  0  0
 27 28  1  0  0  0  0
 27 34  2  0  0  0  0
 28 29  2  0  0  0  0
 28120  1  0  0  0  0
 29 30  1  0  0  0  0
 29121  1  0  0  0  0
 30 31  1  0  0  0  0
 30 32  2  0  0  0  0
 31122  1  0  0  0  0
 32 33  1  0  0  0  0
 32 34  1  0  0  0  0
 33123  1  0  0  0  0
 34124  1  0  0  0  0
 35125  1  6  0  0  0
 36 37  1  0  0  0  0
 36126  1  0  0  0  0
 37 38  1  0  0  0  0
 37127  1  0  0  0  0
 37128  1  0  0  0  0
 38 39  1  0  0  0  0
 38129  1  0  0  0  0
 38130  1  0  0  0  0
 39 40  1  0  0  0  0
 39131  1  0  0  0  0
 39132  1  0  0  0  0
 40 41  1  0  0  0  0
 40133  1  0  0  0  0
 40134  1  0  0  0  0
 41 42  1  0  0  0  0
 41135  1  0  0  0  0
 41136  1  0  0  0  0
 42 43  1  0  0  0  0
 42137  1  0  0  0  0
 42138  1  0  0  0  0
 43 44  1  0  0  0  0
 43139  1  0  0  0  0
 44 45  2  0  0  0  0
 44 46  1  0  0  0  0
 46 47  1  0  0  0  0
 46108  2  0  0  0  0
 47 48  2  0  0  0  0
 47140  1  0  0  0  0
 48 49  1  0  0  0  0
 48141  1  0  0  0  0
 49 50  1  0  0  0  0
 49107  2  0  0  0  0
 50 51  1  0  0  0  0
 50101  2  0  0  0  0
 51 52  2  0  0  0  0
 51106  1  0  0  0  0
 52 53  1  0  0  0  0
 53 54  2  0  0  0  0
 53105  1  0  0  0  0
 54 55  1  0  0  0  0
 54 66  1  0  0  0  0
 55 56  1  0  0  0  0
 55 64  2  0  0  0  0
 56 57  1  0  0  0  0
 56 58  2  0  0  0  0
 58 59  1  0  0  0  0
 58 60  1  0  0  0  0
 60 61  1  0  0  0  0
 60 62  2  0  0  0  0
 62 63  1  0  0  0  0
 62 64  1  0  0  0  0
 64 65  1  0  0  0  0
 66 67  2  0  0  0  0
 66 70  1  0  0  0  0
 67 68  1  0  0  0  0
 67142  1  0  0  0  0
 68 69  2  0  0  0  0
 68143  1  0  0  0  0
 69 70  1  0  0  0  0
 69 71  1  0  0  0  0
 70144  1  0  0  0  0
 71 72  1  0  0  0  0
 71 83  2  0  0  0  0
 72 73  1  0  0  0  0
 72 81  2  0  0  0  0
 73 74  1  0  0  0  0
 73 75  2  0  0  0  0
 75 76  1  0  0  0  0
 75 77  1  0  0  0  0
 77 78  1  0  0  0  0
 77 79  2  0  0  0  0
 79 80  1  0  0  0  0
 79 81  1  0  0  0  0
 81 82  1  0  0  0  0
 83 84  1  0  0  0  0
 83104  1  0  0  0  0
 84 85  2  0  0  0  0
 85 86  1  0  0  0  0
 85103  1  0  0  0  0
 86 87  1  0  0  0  0
 86 98  2  0  0  0  0
 87 88  1  0  0  0  0
 87 96  2  0  0  0  0
 88 89  1  0  0  0  0
 88 90  2  0  0  0  0
 90 91  1  0  0  0  0
 90 92  1  0  0  0  0
 92 93  1  0  0  0  0
 92 94  2  0  0  0  0
 94 95  1  0  0  0  0
 94 96  1  0  0  0  0
 96 97  1  0  0  0  0
 98 99  1  0  0  0  0
 98102  1  0  0  0  0
 99100  2  0  0  0  0
 99145  1  0  0  0  0
100101  1  0  0  0  0
100146  1  0  0  0  0
101102  1  0  0  0  0
102147  1  0  0  0  0
103104  2  0  0  0  0
103148  1  0  0  0  0
104149  1  0  0  0  0
105106  2  0  0  0  0
105150  1  0  0  0  0
106151  1  0  0  0  0
107108  1  0  0  0  0
107152  1  0  0  0  0
108153  1  0  0  0  0
M  END
$$$$
