1_1_2794
 OpenBabel01102313213D

125135  0  0  0  0  0  0  0  0999 V2000
    1.0905   -0.0978    0.8337 O   0  0  0  0  0  0  0  0  0  0  0  0
    2.1397    0.0329    0.2077 C   0  0  0  0  0  0  0  0  0  0  0  0
    3.0015    1.2856    0.2988 C   0  0  0  0  0  0  0  0  0  0  0  0
    3.6698    1.5253    1.6284 C   0  0  0  0  0  0  0  0  0  0  0  0
    4.1489    2.7397    2.1062 C   0  0  0  0  0  0  0  0  0  0  0  0
    4.7187    2.5283    3.3795 C   0  0  0  0  0  0  0  0  0  0  0  0
    4.5468    1.1991    3.6762 C   0  0  0  0  0  0  0  0  0  0  0  0
    3.9516    0.5755    2.5984 N   0  0  0  0  0  0  0  0  0  0  0  0
    3.9267   -0.8210    2.4891 C   0  0  0  0  0  0  0  0  0  0  0  0
    3.0110   -1.5662    3.2369 C   0  0  0  0  0  0  0  0  0  0  0  0
    3.0778   -2.9594    3.1910 C   0  0  0  0  0  0  0  0  0  0  0  0
    4.0973   -3.5874    2.4713 C   0  0  0  0  0  0  0  0  0  0  0  0
    5.0395   -2.8235    1.7773 C   0  0  0  0  0  0  0  0  0  0  0  0
    4.9252   -1.4432    1.7495 C   0  0  0  0  0  0  0  0  0  0  0  0
    5.7949   -0.7315    1.0184 F   0  0  0  0  0  0  0  0  0  0  0  0
    2.6399   -0.9417   -0.6439 N   0  0  0  0  0  0  0  0  0  0  0  0
    1.9873   -2.2298   -0.7894 C   0  0  0  0  0  0  0  0  0  0  0  0
    2.3431   -2.9678   -2.0844 C   0  0  0  0  0  0  0  0  0  0  0  0
    3.7972   -3.4282   -2.2543 C   0  0  0  0  0  0  0  0  0  0  0  0
    4.3417   -4.4438   -1.2480 C   0  0  0  0  0  0  0  0  0  0  0  0
    3.5449   -5.7237   -0.9767 C   0  0  0  0  0  0  0  0  0  0  0  0
    3.8900   -6.8747   -1.9136 C   0  0  0  0  0  0  0  0  0  0  0  0
    5.2728   -7.3094   -1.7413 N   0  0  0  0  0  0  0  0  0  0  0  0
    6.0598   -8.0804   -2.5657 C   0  0  0  0  0  0  0  0  0  0  0  0
    7.0953   -8.5748   -2.1604 O   0  0  0  0  0  0  0  0  0  0  0  0
    5.6080   -8.3415   -3.9428 C   0  0  0  0  0  0  0  0  0  0  0  0
    5.6003   -9.6622   -4.4002 C   0  0  0  0  0  0  0  0  0  0  0  0
    5.0536   -9.9409   -5.6441 C   0  0  0  0  0  0  0  0  0  0  0  0
    4.5018   -8.8981   -6.4017 C   0  0  0  0  0  0  0  0  0  0  0  0
    3.7261   -9.2401   -7.6095 C   0  0  0  0  0  0  0  0  0  0  0  0
    2.3558   -9.8462   -7.2625 C   0  0  0  0  0  0  0  0  0  0  0  0
    1.6249  -10.6915   -7.9220 N   0  0  0  0  0  0  0  0  0  0  0  0
    0.4126  -10.8615   -7.2144 C   0  0  0  0  0  0  0  0  0  0  0  0
   -0.6992  -11.4340   -7.7689 C   0  0  0  0  0  0  0  0  0  0  0  0
   -2.1408  -11.4976   -7.3399 C   0  0  0  0  0  0  0  0  0  0  0  0
   -2.7921  -10.4649   -6.6558 C   0  0  0  0  0  0  0  0  0  0  0  0
   -2.0997   -9.4832   -6.0646 F   0  0  0  0  0  0  0  0  0  0  0  0
   -4.1887  -10.3618   -6.6518 C   0  0  0  0  0  0  0  0  0  0  0  0
   -4.7735   -9.3279   -6.0305 F   0  0  0  0  0  0  0  0  0  0  0  0
   -4.9708  -11.2709   -7.3463 C   0  0  0  0  0  0  0  0  0  0  0  0
   -6.2969  -11.0983   -7.4328 F   0  0  0  0  0  0  0  0  0  0  0  0
   -4.3674  -12.3380   -7.9786 C   0  0  0  0  0  0  0  0  0  0  0  0
   -5.1060  -13.2087   -8.6817 F   0  0  0  0  0  0  0  0  0  0  0  0
   -2.9804  -12.4704   -7.9442 C   0  0  0  0  0  0  0  0  0  0  0  0
   -2.4567  -13.5290   -8.5833 F   0  0  0  0  0  0  0  0  0  0  0  0
   -0.4147  -11.8419   -9.1029 C   0  0  0  0  0  0  0  0  0  0  0  0
    0.3262  -12.8760   -9.6098 C   0  0  0  0  0  0  0  0  0  0  0  0
    0.9348  -12.3135  -10.7503 C   0  0  0  0  0  0  0  0  0  0  0  0
    0.3815  -11.0539  -11.0085 C   0  0  0  0  0  0  0  0  0  0  0  0
   -0.6318  -10.9162  -10.0935 N   0  0  0  0  0  0  0  0  0  0  0  0
    0.7444   -9.9057  -11.8052 C   0  0  0  0  0  0  0  0  0  0  0  0
    0.4109   -8.4598  -11.5029 C   0  0  0  0  0  0  0  0  0  0  0  0
    0.6486   -7.8373  -10.2665 C   0  0  0  0  0  0  0  0  0  0  0  0
    1.1045   -8.5371   -9.2311 F   0  0  0  0  0  0  0  0  0  0  0  0
    0.4237   -6.4749  -10.0569 C   0  0  0  0  0  0  0  0  0  0  0  0
    0.6544   -5.9339   -8.8502 F   0  0  0  0  0  0  0  0  0  0  0  0
   -0.0435   -5.6869  -11.0894 C   0  0  0  0  0  0  0  0  0  0  0  0
   -0.2695   -4.3804  -10.8914 F   0  0  0  0  0  0  0  0  0  0  0  0
   -0.2910   -6.2645  -12.3238 C   0  0  0  0  0  0  0  0  0  0  0  0
   -0.7542   -5.5078  -13.3280 F   0  0  0  0  0  0  0  0  0  0  0  0
   -0.0711   -7.6301  -12.5263 C   0  0  0  0  0  0  0  0  0  0  0  0
   -0.3385   -8.1478  -13.7345 F   0  0  0  0  0  0  0  0  0  0  0  0
    1.7621  -10.0697  -12.6872 C   0  0  0  0  0  0  0  0  0  0  0  0
    2.7194   -9.0892  -12.8074 N   0  0  0  0  0  0  0  0  0  0  0  0
    3.8241   -9.7720  -12.7351 C   0  0  0  0  0  0  0  0  0  0  0  0
    5.1400   -9.2108  -12.3853 C   0  0  0  0  0  0  0  0  0  0  0  0
    6.2178   -9.2372  -13.4504 C   0  0  0  0  0  0  0  0  0  0  0  0
    5.9950   -9.9467  -14.6647 C   0  0  0  0  0  0  0  0  0  0  0  0
    4.7727  -10.3629  -15.0217 F   0  0  0  0  0  0  0  0  0  0  0  0
    7.0089  -10.2710  -15.5669 C   0  0  0  0  0  0  0  0  0  0  0  0
    6.7340  -11.0520  -16.6218 F   0  0  0  0  0  0  0  0  0  0  0  0
    8.2852   -9.8115  -15.3566 C   0  0  0  0  0  0  0  0  0  0  0  0
    9.2709  -10.1415  -16.2013 F   0  0  0  0  0  0  0  0  0  0  0  0
    8.5225   -8.9886  -14.2718 C   0  0  0  0  0  0  0  0  0  0  0  0
    9.7467   -8.4704  -14.0990 F   0  0  0  0  0  0  0  0  0  0  0  0
    7.5082   -8.7026  -13.3395 C   0  0  0  0  0  0  0  0  0  0  0  0
    7.8339   -7.8657  -12.3514 F   0  0  0  0  0  0  0  0  0  0  0  0
    5.0659   -8.9237  -11.0485 C   0  0  0  0  0  0  0  0  0  0  0  0
    6.0714   -8.3119  -10.2069 C   0  0  0  0  0  0  0  0  0  0  0  0
    5.6709   -8.3493   -8.9225 C   0  0  0  0  0  0  0  0  0  0  0  0
    4.3471   -8.9931   -8.7998 C   0  0  0  0  0  0  0  0  0  0  0  0
    4.0298   -9.2201  -10.1233 N   0  0  0  0  0  0  0  0  0  0  0  0
    3.7029  -11.2270  -12.8934 C   0  0  0  0  0  0  0  0  0  0  0  0
    2.3876  -11.3171  -13.0601 C   0  0  0  0  0  0  0  0  0  0  0  0
    0.5858  -10.2000   -5.9568 C   0  0  0  0  0  0  0  0  0  0  0  0
    1.7325   -9.5144   -5.9509 C   0  0  0  0  0  0  0  0  0  0  0  0
    4.5794   -7.5687   -5.9722 C   0  0  0  0  0  0  0  0  0  0  0  0
    5.1760   -7.2891   -4.7554 C   0  0  0  0  0  0  0  0  0  0  0  0
    2.3782    2.1293    0.0876 H   0  0  0  0  0  0  0  0  0  0  0  0
    3.7952    1.1447   -0.4048 H   0  0  0  0  0  0  0  0  0  0  0  0
    4.0966    3.6443    1.6123 H   0  0  0  0  0  0  0  0  0  0  0  0
    5.1768    3.2369    3.9737 H   0  0  0  0  0  0  0  0  0  0  0  0
    4.8182    0.7411    4.5603 H   0  0  0  0  0  0  0  0  0  0  0  0
    2.2972   -1.0940    3.8135 H   0  0  0  0  0  0  0  0  0  0  0  0
    2.3736   -3.5261    3.6890 H   0  0  0  0  0  0  0  0  0  0  0  0
    4.1547   -4.6176    2.4521 H   0  0  0  0  0  0  0  0  0  0  0  0
    5.8197   -3.2872    1.2860 H   0  0  0  0  0  0  0  0  0  0  0  0
    3.4564   -0.7551   -1.1614 H   0  0  0  0  0  0  0  0  0  0  0  0
    0.9288   -2.0744   -0.7710 H   0  0  0  0  0  0  0  0  0  0  0  0
    2.3288   -2.8421    0.0189 H   0  0  0  0  0  0  0  0  0  0  0  0
    2.1154   -2.3139   -2.9002 H   0  0  0  0  0  0  0  0  0  0  0  0
    1.7705   -3.8711   -2.0525 H   0  0  0  0  0  0  0  0  0  0  0  0
    4.4170   -2.5579   -2.1977 H   0  0  0  0  0  0  0  0  0  0  0  0
    3.8112   -3.9419   -3.1928 H   0  0  0  0  0  0  0  0  0  0  0  0
    4.4436   -3.9342   -0.3127 H   0  0  0  0  0  0  0  0  0  0  0  0
    5.2440   -4.7958   -1.7027 H   0  0  0  0  0  0  0  0  0  0  0  0
    2.5037   -5.5018   -1.0845 H   0  0  0  0  0  0  0  0  0  0  0  0
    3.7960   -6.0425    0.0134 H   0  0  0  0  0  0  0  0  0  0  0  0
    3.7500   -6.5538   -2.9247 H   0  0  0  0  0  0  0  0  0  0  0  0
    3.2480   -7.6990   -1.6829 H   0  0  0  0  0  0  0  0  0  0  0  0
    5.7071   -7.0057   -0.9116 H   0  0  0  0  0  0  0  0  0  0  0  0
    5.9957  -10.4191   -3.8207 H   0  0  0  0  0  0  0  0  0  0  0  0
    5.0530  -10.9064   -6.0085 H   0  0  0  0  0  0  0  0  0  0  0  0
    0.4172  -13.8369   -9.2445 H   0  0  0  0  0  0  0  0  0  0  0  0
    1.6763  -12.7626  -11.3103 H   0  0  0  0  0  0  0  0  0  0  0  0
   -1.3760  -10.2733  -10.1389 H   0  0  0  0  0  0  0  0  0  0  0  0
    6.9606   -7.9082  -10.5408 H   0  0  0  0  0  0  0  0  0  0  0  0
    6.2161   -7.9777   -8.1290 H   0  0  0  0  0  0  0  0  0  0  0  0
    3.1507   -9.5620  -10.4053 H   0  0  0  0  0  0  0  0  0  0  0  0
    4.4263  -11.9629  -12.8793 H   0  0  0  0  0  0  0  0  0  0  0  0
    1.8884  -12.1523  -13.4041 H   0  0  0  0  0  0  0  0  0  0  0  0
   -0.0789  -10.2460   -5.1687 H   0  0  0  0  0  0  0  0  0  0  0  0
    2.1009   -8.8980   -5.2097 H   0  0  0  0  0  0  0  0  0  0  0  0
    4.1971   -6.8074   -6.5547 H   0  0  0  0  0  0  0  0  0  0  0  0
    5.3011   -6.3113   -4.4501 H   0  0  0  0  0  0  0  0  0  0  0  0
  1  2  2  0  0  0  0
  2  3  1  0  0  0  0
  2 16  1  0  0  0  0
  3  4  1  0  0  0  0
  3 89  1  0  0  0  0
  3 90  1  0  0  0  0
  4  5  2  0  0  0  0
  4  8  1  0  0  0  0
  5  6  1  0  0  0  0
  5 91  1  0  0  0  0
  6  7  2  0  0  0  0
  6 92  1  0  0  0  0
  7  8  1  0  0  0  0
  7 93  1  0  0  0  0
  8  9  1  0  0  0  0
  9 10  1  0  0  0  0
  9 14  2  0  0  0  0
 10 11  2  0  0  0  0
 10 94  1  0  0  0  0
 11 12  1  0  0  0  0
 11 95  1  0  0  0  0
 12 13  2  0  0  0  0
 12 96  1  0  0  0  0
 13 14  1  0  0  0  0
 13 97  1  0  0  0  0
 14 15  1  0  0  0  0
 16 17  1  0  0  0  0
 16 98  1  0  0  0  0
 17 18  1  0  0  0  0
 17 99  1  0  0  0  0
 17100  1  0  0  0  0
 18 19  1  0  0  0  0
 18101  1  0  0  0  0
 18102  1  0  0  0  0
 19 20  1  0  0  0  0
 19103  1  0  0  0  0
 19104  1  0  0  0  0
 20 21  1  0  0  0  0
 20105  1  0  0  0  0
 20106  1  0  0  0  0
 21 22  1  0  0  0  0
 21107  1  0  0  0  0
 21108  1  0  0  0  0
 22 23  1  0  0  0  0
 22109  1  0  0  0  0
 22110  1  0  0  0  0
 23 24  1  0  0  0  0
 23111  1  0  0  0  0
 24 25  2  0  0  0  0
 24 26  1  0  0  0  0
 26 27  1  0  0  0  0
 26 88  2  0  0  0  0
 27 28  2  0  0  0  0
 27112  1  0  0  0  0
 28 29  1  0  0  0  0
 28113  1  0  0  0  0
 29 30  1  0  0  0  0
 29 87  2  0  0  0  0
 30 31  1  0  0  0  0
 30 81  2  0  0  0  0
 31 32  2  0  0  0  0
 31 86  1  0  0  0  0
 32 33  1  0  0  0  0
 33 34  2  0  0  0  0
 33 85  1  0  0  0  0
 34 35  1  0  0  0  0
 34 46  1  0  0  0  0
 35 36  1  0  0  0  0
 35 44  2  0  0  0  0
 36 37  1  0  0  0  0
 36 38  2  0  0  0  0
 38 39  1  0  0  0  0
 38 40  1  0  0  0  0
 40 41  1  0  0  0  0
 40 42  2  0  0  0  0
 42 43  1  0  0  0  0
 42 44  1  0  0  0  0
 44 45  1  0  0  0  0
 46 47  2  0  0  0  0
 46 50  1  0  0  0  0
 47 48  1  0  0  0  0
 47114  1  0  0  0  0
 48 49  2  0  0  0  0
 48115  1  0  0  0  0
 49 50  1  0  0  0  0
 49 51  1  0  0  0  0
 50116  1  0  0  0  0
 51 52  1  0  0  0  0
 51 63  2  0  0  0  0
 52 53  1  0  0  0  0
 52 61  2  0  0  0  0
 53 54  1  0  0  0  0
 53 55  2  0  0  0  0
 55 56  1  0  0  0  0
 55 57  1  0  0  0  0
 57 58  1  0  0  0  0
 57 59  2  0  0  0  0
 59 60  1  0  0  0  0
 59 61  1  0  0  0  0
 61 62  1  0  0  0  0
 63 64  1  0  0  0  0
 63 84  1  0  0  0  0
 64 65  2  0  0  0  0
 65 66  1  0  0  0  0
 65 83  1  0  0  0  0
 66 67  1  0  0  0  0
 66 78  2  0  0  0  0
 67 68  1  0  0  0  0
 67 76  2  0  0  0  0
 68 69  1  0  0  0  0
 68 70  2  0  0  0  0
 70 71  1  0  0  0  0
 70 72  1  0  0  0  0
 72 73  1  0  0  0  0
 72 74  2  0  0  0  0
 74 75  1  0  0  0  0
 74 76  1  0  0  0  0
 76 77  1  0  0  0  0
 78 79  1  0  0  0  0
 78 82  1  0  0  0  0
 79 80  2  0  0  0  0
 79117  1  0  0  0  0
 80 81  1  0  0  0  0
 80118  1  0  0  0  0
 81 82  1  0  0  0  0
 82119  1  0  0  0  0
 83 84  2  0  0  0  0
 83120  1  0  0  0  0
 84121  1  0  0  0  0
 85 86  2  0  0  0  0
 85122  1  0  0  0  0
 86123  1  0  0  0  0
 87 88  1  0  0  0  0
 87124  1  0  0  0  0
 88125  1  0  0  0  0
M  END
$$$$
