1_1_1926
 OpenBabel01102313203D

145157  0  0  1  0  0  0  0  0999 V2000
    1.9321    0.1260   -0.1860 C   0  0  0  0  0  0  0  0  0  0  0  0
    0.4633    0.3175    0.0559 C   0  0  0  0  0  0  0  0  0  0  0  0
   -0.3423   -0.7943    0.2816 C   0  0  0  0  0  0  0  0  0  0  0  0
   -1.7044   -0.6318    0.5578 C   0  0  0  0  0  0  0  0  0  0  0  0
   -2.3142    0.6342    0.6155 C   0  0  0  0  0  0  0  0  0  0  0  0
   -3.7491    0.8011    0.9582 C   0  0  0  0  0  0  0  0  0  0  0  0
   -4.5376    1.6895    0.3059 N   0  0  0  0  0  0  0  0  0  0  0  0
   -5.8005    1.3947    0.7115 N   0  0  0  0  0  0  0  0  0  0  0  0
   -6.9565    1.7179   -0.0384 C   0  0  0  0  0  0  0  0  0  0  0  0
   -7.7667    0.6773   -0.5336 C   0  0  0  0  0  0  0  0  0  0  0  0
   -8.8626    0.9680   -1.3454 C   0  0  0  0  0  0  0  0  0  0  0  0
   -9.2118    2.2952   -1.5754 C   0  0  0  0  0  0  0  0  0  0  0  0
   -8.4509    3.3278   -1.0161 C   0  0  0  0  0  0  0  0  0  0  0  0
   -7.2965    3.0462   -0.2766 C   0  0  0  0  0  0  0  0  0  0  0  0
   -5.8058    0.5401    1.7700 C   0  0  0  0  0  0  0  0  0  0  0  0
   -4.5192    0.0710    1.9377 C   0  0  0  0  0  0  0  0  0  0  0  0
   -4.0604   -0.9996    2.8742 C   0  0  2  0  0  0  0  0  0  0  0  0
   -4.0475   -2.2752    2.1487 N   0  3  0  0  0  0  0  0  0  0  0  0
   -5.3563   -2.9611    2.2776 C   0  0  2  0  0  0  0  0  0  0  0  0
   -6.1585   -3.2295    0.9714 C   0  0  0  0  0  0  0  0  0  0  0  0
   -7.1847   -3.9231    1.0721 O   0  0  0  0  0  0  0  0  0  0  0  0
   -5.8582   -2.8334   -0.3038 N   0  0  0  0  0  0  0  0  0  0  0  0
   -4.9570   -1.8155   -0.8237 C   0  0  0  0  0  0  0  0  0  0  0  0
   -4.3223   -2.0764   -2.1914 C   0  0  0  0  0  0  0  0  0  0  0  0
   -4.7798   -1.3826   -3.5046 C   0  0  0  0  0  0  0  0  0  0  0  0
   -5.8493   -0.2821   -3.6035 C   0  0  0  0  0  0  0  0  0  0  0  0
   -5.5036    1.1146   -3.0817 C   0  0  0  0  0  0  0  0  0  0  0  0
   -4.6553    2.0323   -3.9624 C   0  0  0  0  0  0  0  0  0  0  0  0
   -5.4022    3.0333   -4.7440 N   0  0  0  0  0  0  0  0  0  0  0  0
   -4.8928    4.0617   -5.5374 C   0  0  0  0  0  0  0  0  0  0  0  0
   -5.6052    4.8453   -6.1326 O   0  0  0  0  0  0  0  0  0  0  0  0
   -3.4239    4.0978   -5.7216 C   0  0  0  0  0  0  0  0  0  0  0  0
   -2.9396    3.6473   -6.9536 C   0  0  0  0  0  0  0  0  0  0  0  0
   -1.7658    2.9060   -6.9707 C   0  0  0  0  0  0  0  0  0  0  0  0
   -1.1456    2.6180   -5.7557 C   0  0  0  0  0  0  0  0  0  0  0  0
   -0.1969    1.5232   -5.5923 C   0  0  0  0  0  0  0  0  0  0  0  0
    1.2343    1.8227   -5.4124 C   0  0  0  0  0  0  0  0  0  0  0  0
    2.1791    0.9612   -5.5809 N   0  0  0  0  0  0  0  0  0  0  0  0
    3.3555    1.5443   -5.1820 C   0  0  0  0  0  0  0  0  0  0  0  0
    4.4156    0.7352   -4.8978 C   0  0  0  0  0  0  0  0  0  0  0  0
    5.5976    1.0990   -4.0134 C   0  0  0  0  0  0  0  0  0  0  0  0
    6.5194    0.0987   -3.6257 C   0  0  0  0  0  0  0  0  0  0  0  0
    6.4587   -1.1417   -4.1291 F   0  0  0  0  0  0  0  0  0  0  0  0
    7.5331    0.3242   -2.6860 C   0  0  0  0  0  0  0  0  0  0  0  0
    8.3385   -0.6837   -2.3233 F   0  0  0  0  0  0  0  0  0  0  0  0
    7.6985    1.5670   -2.1141 C   0  0  0  0  0  0  0  0  0  0  0  0
    8.6537    1.7818   -1.2008 F   0  0  0  0  0  0  0  0  0  0  0  0
    6.8591    2.5861   -2.4941 C   0  0  0  0  0  0  0  0  0  0  0  0
    7.0029    3.8092   -1.9623 F   0  0  0  0  0  0  0  0  0  0  0  0
    5.8337    2.3559   -3.4157 C   0  0  0  0  0  0  0  0  0  0  0  0
    5.0837    3.4282   -3.6619 F   0  0  0  0  0  0  0  0  0  0  0  0
    4.1869   -0.6224   -5.4087 C   0  0  0  0  0  0  0  0  0  0  0  0
    3.8651   -1.8471   -4.8484 C   0  0  0  0  0  0  0  0  0  0  0  0
    3.4954   -2.7346   -5.9047 C   0  0  0  0  0  0  0  0  0  0  0  0
    3.6060   -2.0523   -7.1029 C   0  0  0  0  0  0  0  0  0  0  0  0
    4.0413   -0.7842   -6.7774 N   0  0  0  0  0  0  0  0  0  0  0  0
    3.3115   -2.3608   -8.4929 C   0  0  0  0  0  0  0  0  0  0  0  0
    4.4310   -2.5510   -9.4694 C   0  0  0  0  0  0  0  0  0  0  0  0
    4.5136   -3.6804  -10.2973 C   0  0  0  0  0  0  0  0  0  0  0  0
    3.5288   -4.5912  -10.3094 F   0  0  0  0  0  0  0  0  0  0  0  0
    5.6212   -3.9021  -11.1186 C   0  0  0  0  0  0  0  0  0  0  0  0
    5.6495   -4.9737  -11.9231 F   0  0  0  0  0  0  0  0  0  0  0  0
    6.6954   -3.0281  -11.1004 C   0  0  0  0  0  0  0  0  0  0  0  0
    7.7706   -3.2593  -11.8657 F   0  0  0  0  0  0  0  0  0  0  0  0
    6.6487   -1.9101  -10.2904 C   0  0  0  0  0  0  0  0  0  0  0  0
    7.6846   -1.0598  -10.2552 F   0  0  0  0  0  0  0  0  0  0  0  0
    5.5239   -1.6618   -9.5073 C   0  0  0  0  0  0  0  0  0  0  0  0
    5.5145   -0.5204   -8.8022 F   0  0  0  0  0  0  0  0  0  0  0  0
    1.9972   -2.4519   -8.8401 C   0  0  0  0  0  0  0  0  0  0  0  0
    0.9837   -2.2557   -7.9422 N   0  0  0  0  0  0  0  0  0  0  0  0
   -0.1580   -2.2737   -8.5712 C   0  0  0  0  0  0  0  0  0  0  0  0
   -1.4838   -1.9047   -7.9403 C   0  0  0  0  0  0  0  0  0  0  0  0
   -2.5947   -1.2029   -8.6319 C   0  0  0  0  0  0  0  0  0  0  0  0
   -3.9131   -1.4977   -8.2334 C   0  0  0  0  0  0  0  0  0  0  0  0
   -4.1723   -2.6291   -7.5579 F   0  0  0  0  0  0  0  0  0  0  0  0
   -4.9413   -0.5762   -8.4081 C   0  0  0  0  0  0  0  0  0  0  0  0
   -6.1583   -0.8303   -7.9065 F   0  0  0  0  0  0  0  0  0  0  0  0
   -4.6821    0.6368   -9.0235 C   0  0  0  0  0  0  0  0  0  0  0  0
   -5.6429    1.5673   -9.1039 F   0  0  0  0  0  0  0  0  0  0  0  0
   -3.4128    0.9018   -9.5186 C   0  0  0  0  0  0  0  0  0  0  0  0
   -3.1581    2.0852  -10.0947 F   0  0  0  0  0  0  0  0  0  0  0  0
   -2.3756   -0.0117   -9.3315 C   0  0  0  0  0  0  0  0  0  0  0  0
   -1.1387    0.3280   -9.7220 F   0  0  0  0  0  0  0  0  0  0  0  0
   -1.4191   -1.5879   -6.6146 C   0  0  0  0  0  0  0  0  0  0  0  0
   -0.3879   -2.0278   -5.6958 C   0  0  0  0  0  0  0  0  0  0  0  0
    0.1383   -0.9320   -5.1306 C   0  0  0  0  0  0  0  0  0  0  0  0
   -0.6201    0.2384   -5.5674 C   0  0  0  0  0  0  0  0  0  0  0  0
   -1.7811   -0.2991   -6.1470 N   0  0  0  0  0  0  0  0  0  0  0  0
   -0.0026   -2.5866   -9.9940 C   0  0  0  0  0  0  0  0  0  0  0  0
    1.3335   -2.6738  -10.1103 C   0  0  0  0  0  0  0  0  0  0  0  0
    3.0373    2.9437   -5.0543 C   0  0  0  0  0  0  0  0  0  0  0  0
    1.7230    3.1671   -5.1337 C   0  0  0  0  0  0  0  0  0  0  0  0
   -1.5080    3.3005   -4.5842 C   0  0  0  0  0  0  0  0  0  0  0  0
   -2.6241    4.1126   -4.5834 C   0  0  0  0  0  0  0  0  0  0  0  0
   -6.2397   -2.3358    3.3666 C   0  0  0  0  0  0  0  0  0  0  0  0
   -5.1326   -1.2509    4.2996 S   0  0  0  0  0  0  0  0  0  0  0  0
   -1.5066    1.7396    0.3312 C   0  0  0  0  0  0  0  0  0  0  0  0
   -0.1330    1.5842    0.0620 C   0  0  0  0  0  0  0  0  0  0  0  0
    2.1671   -0.9171   -0.1463 H   0  0  0  0  0  0  0  0  0  0  0  0
    2.4882    0.6458    0.5660 H   0  0  0  0  0  0  0  0  0  0  0  0
    2.1882    0.5128   -1.1502 H   0  0  0  0  0  0  0  0  0  0  0  0
    0.0659   -1.7414    0.2452 H   0  0  0  0  0  0  0  0  0  0  0  0
   -2.2819   -1.4706    0.7251 H   0  0  0  0  0  0  0  0  0  0  0  0
   -7.5486   -0.3028   -0.2950 H   0  0  0  0  0  0  0  0  0  0  0  0
   -9.4104    0.2047   -1.7723 H   0  0  0  0  0  0  0  0  0  0  0  0
  -10.0330    2.5182   -2.1592 H   0  0  0  0  0  0  0  0  0  0  0  0
   -8.7443    4.3081   -1.1504 H   0  0  0  0  0  0  0  0  0  0  0  0
   -6.7068    3.8114    0.0863 H   0  0  0  0  0  0  0  0  0  0  0  0
   -6.6252    0.2879    2.3445 H   0  0  0  0  0  0  0  0  0  0  0  0
   -3.1008   -0.6855    3.2283 H   0  0  0  0  0  0  0  0  0  0  0  0
   -3.3162   -2.8728    2.5340 H   0  0  0  0  0  0  0  0  0  0  0  0
   -3.8682   -2.0908    1.1617 H   0  0  0  0  0  0  0  0  0  0  0  0
   -5.0626   -3.9435    2.5833 H   0  0  0  0  0  0  0  0  0  0  0  0
   -6.3434   -3.3309   -1.0011 H   0  0  0  0  0  0  0  0  0  0  0  0
   -4.1622   -1.6979   -0.1171 H   0  0  0  0  0  0  0  0  0  0  0  0
   -5.5702   -0.9500   -0.9647 H   0  0  0  0  0  0  0  0  0  0  0  0
   -4.4282   -3.1268   -2.3654 H   0  0  0  0  0  0  0  0  0  0  0  0
   -3.3550   -1.6398   -2.0551 H   0  0  0  0  0  0  0  0  0  0  0  0
   -5.1269   -2.1730   -4.1368 H   0  0  0  0  0  0  0  0  0  0  0  0
   -3.9024   -0.8148   -3.7342 H   0  0  0  0  0  0  0  0  0  0  0  0
   -6.7046   -0.6216   -3.0575 H   0  0  0  0  0  0  0  0  0  0  0  0
   -5.9895   -0.1439   -4.6552 H   0  0  0  0  0  0  0  0  0  0  0  0
   -4.9764    0.9859   -2.1595 H   0  0  0  0  0  0  0  0  0  0  0  0
   -6.4487    1.6122   -3.0183 H   0  0  0  0  0  0  0  0  0  0  0  0
   -4.1105    1.4184   -4.6488 H   0  0  0  0  0  0  0  0  0  0  0  0
   -4.0338    2.5886   -3.2922 H   0  0  0  0  0  0  0  0  0  0  0  0
   -6.3836    2.9684   -4.7010 H   0  0  0  0  0  0  0  0  0  0  0  0
   -3.4426    3.8607   -7.8291 H   0  0  0  0  0  0  0  0  0  0  0  0
   -1.3621    2.5761   -7.8613 H   0  0  0  0  0  0  0  0  0  0  0  0
    3.8883   -2.0783   -3.8429 H   0  0  0  0  0  0  0  0  0  0  0  0
    3.1970   -3.7162   -5.7931 H   0  0  0  0  0  0  0  0  0  0  0  0
    4.2264   -0.0785   -7.4385 H   0  0  0  0  0  0  0  0  0  0  0  0
   -0.1101   -3.0043   -5.5109 H   0  0  0  0  0  0  0  0  0  0  0  0
    0.9478   -0.9173   -4.4907 H   0  0  0  0  0  0  0  0  0  0  0  0
   -2.6643    0.1305   -6.2147 H   0  0  0  0  0  0  0  0  0  0  0  0
   -0.7287   -2.7082  -10.7172 H   0  0  0  0  0  0  0  0  0  0  0  0
    1.8264   -2.8740  -10.9946 H   0  0  0  0  0  0  0  0  0  0  0  0
    3.7416    3.6856   -4.9177 H   0  0  0  0  0  0  0  0  0  0  0  0
    1.1979    4.0491   -5.0270 H   0  0  0  0  0  0  0  0  0  0  0  0
   -0.9426    3.1957   -3.7273 H   0  0  0  0  0  0  0  0  0  0  0  0
   -2.8558    4.7064   -3.7718 H   0  0  0  0  0  0  0  0  0  0  0  0
   -6.6471   -3.0941    4.0021 H   0  0  0  0  0  0  0  0  0  0  0  0
   -7.0711   -1.8035    2.9539 H   0  0  0  0  0  0  0  0  0  0  0  0
   -1.9234    2.6836    0.3184 H   0  0  0  0  0  0  0  0  0  0  0  0
    0.4433    2.4175   -0.1339 H   0  0  0  0  0  0  0  0  0  0  0  0
  1  2  1  0  0  0  0
  1 99  1  0  0  0  0
  1100  1  0  0  0  0
  1101  1  0  0  0  0
  2  3  1  0  0  0  0
  2 98  2  0  0  0  0
  3  4  2  0  0  0  0
  3102  1  0  0  0  0
  4  5  1  0  0  0  0
  4103  1  0  0  0  0
  5  6  1  0  0  0  0
  5 97  2  0  0  0  0
  6  7  2  0  0  0  0
  6 16  1  0  0  0  0
  7  8  1  0  0  0  0
  8  9  1  0  0  0  0
  8 15  1  0  0  0  0
  9 10  1  0  0  0  0
  9 14  2  0  0  0  0
 10 11  2  0  0  0  0
 10104  1  0  0  0  0
 11 12  1  0  0  0  0
 11105  1  0  0  0  0
 12 13  2  0  0  0  0
 12106  1  0  0  0  0
 13 14  1  0  0  0  0
 13107  1  0  0  0  0
 14108  1  0  0  0  0
 15 16  2  0  0  0  0
 15109  1  0  0  0  0
 16 17  1  0  0  0  0
 17 18  1  0  0  0  0
 17 96  1  0  0  0  0
 17110  1  1  0  0  0
 18 19  1  0  0  0  0
 18111  1  0  0  0  0
 18112  1  0  0  0  0
 19 20  1  0  0  0  0
 19 95  1  0  0  0  0
 19113  1  1  0  0  0
 20 21  2  0  0  0  0
 20 22  1  0  0  0  0
 22 23  1  0  0  0  0
 22114  1  0  0  0  0
 23 24  1  0  0  0  0
 23115  1  0  0  0  0
 23116  1  0  0  0  0
 24 25  1  0  0  0  0
 24117  1  0  0  0  0
 24118  1  0  0  0  0
 25 26  1  0  0  0  0
 25119  1  0  0  0  0
 25120  1  0  0  0  0
 26 27  1  0  0  0  0
 26121  1  0  0  0  0
 26122  1  0  0  0  0
 27 28  1  0  0  0  0
 27123  1  0  0  0  0
 27124  1  0  0  0  0
 28 29  1  0  0  0  0
 28125  1  0  0  0  0
 28126  1  0  0  0  0
 29 30  1  0  0  0  0
 29127  1  0  0  0  0
 30 31  2  0  0  0  0
 30 32  1  0  0  0  0
 32 33  1  0  0  0  0
 32 94  2  0  0  0  0
 33 34  2  0  0  0  0
 33128  1  0  0  0  0
 34 35  1  0  0  0  0
 34129  1  0  0  0  0
 35 36  1  0  0  0  0
 35 93  2  0  0  0  0
 36 37  1  0  0  0  0
 36 87  2  0  0  0  0
 37 38  2  0  0  0  0
 37 92  1  0  0  0  0
 38 39  1  0  0  0  0
 39 40  2  0  0  0  0
 39 91  1  0  0  0  0
 40 41  1  0  0  0  0
 40 52  1  0  0  0  0
 41 42  1  0  0  0  0
 41 50  2  0  0  0  0
 42 43  1  0  0  0  0
 42 44  2  0  0  0  0
 44 45  1  0  0  0  0
 44 46  1  0  0  0  0
 46 47  1  0  0  0  0
 46 48  2  0  0  0  0
 48 49  1  0  0  0  0
 48 50  1  0  0  0  0
 50 51  1  0  0  0  0
 52 53  2  0  0  0  0
 52 56  1  0  0  0  0
 53 54  1  0  0  0  0
 53130  1  0  0  0  0
 54 55  2  0  0  0  0
 54131  1  0  0  0  0
 55 56  1  0  0  0  0
 55 57  1  0  0  0  0
 56132  1  0  0  0  0
 57 58  1  0  0  0  0
 57 69  2  0  0  0  0
 58 59  1  0  0  0  0
 58 67  2  0  0  0  0
 59 60  1  0  0  0  0
 59 61  2  0  0  0  0
 61 62  1  0  0  0  0
 61 63  1  0  0  0  0
 63 64  1  0  0  0  0
 63 65  2  0  0  0  0
 65 66  1  0  0  0  0
 65 67  1  0  0  0  0
 67 68  1  0  0  0  0
 69 70  1  0  0  0  0
 69 90  1  0  0  0  0
 70 71  2  0  0  0  0
 71 72  1  0  0  0  0
 71 89  1  0  0  0  0
 72 73  1  0  0  0  0
 72 84  2  0  0  0  0
 73 74  1  0  0  0  0
 73 82  2  0  0  0  0
 74 75  1  0  0  0  0
 74 76  2  0  0  0  0
 76 77  1  0  0  0  0
 76 78  1  0  0  0  0
 78 79  1  0  0  0  0
 78 80  2  0  0  0  0
 80 81  1  0  0  0  0
 80 82  1  0  0  0  0
 82 83  1  0  0  0  0
 84 85  1  0  0  0  0
 84 88  1  0  0  0  0
 85 86  2  0  0  0  0
 85133  1  0  0  0  0
 86 87  1  0  0  0  0
 86134  1  0  0  0  0
 87 88  1  0  0  0  0
 88135  1  0  0  0  0
 89 90  2  0  0  0  0
 89136  1  0  0  0  0
 90137  1  0  0  0  0
 91 92  2  0  0  0  0
 91138  1  0  0  0  0
 92139  1  0  0  0  0
 93 94  1  0  0  0  0
 93140  1  0  0  0  0
 94141  1  0  0  0  0
 95 96  1  0  0  0  0
 95142  1  0  0  0  0
 95143  1  0  0  0  0
 97 98  1  0  0  0  0
 97144  1  0  0  0  0
 98145  1  0  0  0  0
M  CHG  1  18   1
M  END
$$$$
