1_1_2760
 OpenBabel01102313213D

123132  0  0  0  0  0  0  0  0999 V2000
    1.0444    0.2068   -0.0090 C   0  0  0  0  0  0  0  0  0  0  0  0
    0.4545   -1.1840    0.2401 C   0  0  1  0  0  0  0  0  0  0  0  0
    1.0083   -1.8293    1.5253 C   0  0  0  0  0  0  0  0  0  0  0  0
    0.3190   -2.0505    2.5232 O   0  0  0  0  0  0  0  0  0  0  0  0
    2.3005   -2.2667    1.5659 N   0  0  0  0  0  0  0  0  0  0  0  0
    3.4186   -1.9310    0.7098 C   0  0  0  0  0  0  0  0  0  0  0  0
    4.2423   -0.8110    1.3521 C   0  0  0  0  0  0  0  0  0  0  0  0
    4.9956   -1.2569    2.6141 C   0  0  0  0  0  0  0  0  0  0  0  0
    5.9869   -2.4051    2.3955 C   0  0  0  0  0  0  0  0  0  0  0  0
    7.0295   -2.1437    1.3080 C   0  0  0  0  0  0  0  0  0  0  0  0
    7.9216   -0.9401    1.5851 C   0  0  0  0  0  0  0  0  0  0  0  0
    8.7718   -1.1537    2.7472 N   0  0  0  0  0  0  0  0  0  0  0  0
   10.1393   -1.0882    2.8360 C   0  0  0  0  0  0  0  0  0  0  0  0
   10.7249   -1.5047    3.8308 O   0  0  0  0  0  0  0  0  0  0  0  0
   10.9062   -0.5260    1.7075 C   0  0  0  0  0  0  0  0  0  0  0  0
   12.0232   -1.2146    1.2299 C   0  0  0  0  0  0  0  0  0  0  0  0
   12.6975   -0.7357    0.1055 C   0  0  0  0  0  0  0  0  0  0  0  0
   12.2292    0.4046   -0.5668 C   0  0  0  0  0  0  0  0  0  0  0  0
   12.8783    0.9013   -1.8051 C   0  0  0  0  0  0  0  0  0  0  0  0
   13.5001    2.2679   -1.8243 C   0  0  0  0  0  0  0  0  0  0  0  0
   13.9940    2.9415   -2.8318 N   0  0  0  0  0  0  0  0  0  0  0  0
   14.3763    4.1700   -2.3103 C   0  0  0  0  0  0  0  0  0  0  0  0
   14.9973    5.1970   -2.9382 C   0  0  0  0  0  0  0  0  0  0  0  0
   15.2829    6.4307   -2.1286 C   0  0  0  0  0  0  0  0  0  0  0  0
   16.1985    6.4258   -1.0642 C   0  0  0  0  0  0  0  0  0  0  0  0
   16.8451    5.2973   -0.7343 F   0  0  0  0  0  0  0  0  0  0  0  0
   16.4103    7.5663   -0.2936 C   0  0  0  0  0  0  0  0  0  0  0  0
   17.2327    7.5149    0.7634 F   0  0  0  0  0  0  0  0  0  0  0  0
   15.7522    8.7467   -0.6021 C   0  0  0  0  0  0  0  0  0  0  0  0
   15.9551    9.8429    0.1415 F   0  0  0  0  0  0  0  0  0  0  0  0
   14.8747    8.7872   -1.6745 C   0  0  0  0  0  0  0  0  0  0  0  0
   14.2504    9.9317   -1.9852 F   0  0  0  0  0  0  0  0  0  0  0  0
   14.6307    7.6381   -2.4223 C   0  0  0  0  0  0  0  0  0  0  0  0
   13.7527    7.7052   -3.4344 F   0  0  0  0  0  0  0  0  0  0  0  0
   15.3767    5.1788   -4.3264 C   0  0  0  0  0  0  0  0  0  0  0  0
   16.0759    6.1341   -5.0417 C   0  0  0  0  0  0  0  0  0  0  0  0
   16.1389    5.7199   -6.3758 C   0  0  0  0  0  0  0  0  0  0  0  0
   15.5420    4.4730   -6.4792 C   0  0  0  0  0  0  0  0  0  0  0  0
   15.0746    4.1551   -5.2141 N   0  0  0  0  0  0  0  0  0  0  0  0
   15.4084    3.6363   -7.6466 C   0  0  0  0  0  0  0  0  0  0  0  0
   15.9948    4.1488   -8.9307 C   0  0  0  0  0  0  0  0  0  0  0  0
   15.1874    4.5924   -9.9875 C   0  0  0  0  0  0  0  0  0  0  0  0
   13.8527    4.4809   -9.9109 F   0  0  0  0  0  0  0  0  0  0  0  0
   15.7521    5.1333  -11.1403 C   0  0  0  0  0  0  0  0  0  0  0  0
   14.9632    5.5213  -12.1519 F   0  0  0  0  0  0  0  0  0  0  0  0
   17.1287    5.2695  -11.2451 C   0  0  0  0  0  0  0  0  0  0  0  0
   17.6683    5.8106  -12.3459 F   0  0  0  0  0  0  0  0  0  0  0  0
   17.9456    4.8433  -10.2095 C   0  0  0  0  0  0  0  0  0  0  0  0
   19.2747    4.9894  -10.3006 F   0  0  0  0  0  0  0  0  0  0  0  0
   17.3864    4.2736   -9.0697 C   0  0  0  0  0  0  0  0  0  0  0  0
   18.2030    3.8690   -8.0851 F   0  0  0  0  0  0  0  0  0  0  0  0
   14.8198    2.4150   -7.6658 C   0  0  0  0  0  0  0  0  0  0  0  0
   14.2446    1.7084   -6.6182 N   0  0  0  0  0  0  0  0  0  0  0  0
   13.8144    0.5823   -7.1336 C   0  0  0  0  0  0  0  0  0  0  0  0
   13.1309   -0.5711   -6.4511 C   0  0  0  0  0  0  0  0  0  0  0  0
   12.6631   -1.7560   -7.2163 C   0  0  0  0  0  0  0  0  0  0  0  0
   13.5729   -2.6701   -7.7636 C   0  0  0  0  0  0  0  0  0  0  0  0
   14.8912   -2.4531   -7.6476 F   0  0  0  0  0  0  0  0  0  0  0  0
   13.1326   -3.7980   -8.4540 C   0  0  0  0  0  0  0  0  0  0  0  0
   14.0237   -4.6401   -8.9944 F   0  0  0  0  0  0  0  0  0  0  0  0
   11.7747   -4.0478   -8.5864 C   0  0  0  0  0  0  0  0  0  0  0  0
   11.3522   -5.1415   -9.2350 F   0  0  0  0  0  0  0  0  0  0  0  0
   10.8555   -3.1617   -8.0462 C   0  0  0  0  0  0  0  0  0  0  0  0
    9.5428   -3.4088   -8.1540 F   0  0  0  0  0  0  0  0  0  0  0  0
   11.2945   -2.0191   -7.3812 C   0  0  0  0  0  0  0  0  0  0  0  0
   10.3825   -1.1798   -6.8687 F   0  0  0  0  0  0  0  0  0  0  0  0
   12.9425   -0.5292   -5.1180 C   0  0  0  0  0  0  0  0  0  0  0  0
   12.2957   -1.5691   -4.3223 C   0  0  0  0  0  0  0  0  0  0  0  0
   12.1970   -1.1502   -3.0512 C   0  0  0  0  0  0  0  0  0  0  0  0
   12.8166    0.1697   -2.9336 C   0  0  0  0  0  0  0  0  0  0  0  0
   13.2556    0.4469   -4.2045 N   0  0  0  0  0  0  0  0  0  0  0  0
   14.0451    0.4588   -8.5794 C   0  0  0  0  0  0  0  0  0  0  0  0
   14.6887    1.5874   -8.8473 C   0  0  0  0  0  0  0  0  0  0  0  0
   14.0057    4.1701   -0.9118 C   0  0  0  0  0  0  0  0  0  0  0  0
   13.5373    2.9884   -0.5425 C   0  0  0  0  0  0  0  0  0  0  0  0
   11.1219    1.1003   -0.0556 C   0  0  0  0  0  0  0  0  0  0  0  0
   10.4998    0.6696    1.1092 C   0  0  0  0  0  0  0  0  0  0  0  0
   -1.0683   -1.2754    0.2697 C   0  0  0  0  0  0  0  0  0  0  0  0
   -1.6983   -2.4656    0.1815 C   0  0  0  0  0  0  0  0  0  0  0  0
   -3.1315   -2.5813    0.2354 C   0  0  0  0  0  0  0  0  0  0  0  0
   -3.8826   -1.4788    0.2891 C   0  0  0  0  0  0  0  0  0  0  0  0
   -3.2968   -0.2316    0.3361 N   0  0  0  0  0  0  0  0  0  0  0  0
   -4.1296    0.9438    0.3421 C   0  0  0  0  0  0  0  0  0  0  0  0
   -4.9746    0.9029   -0.7253 F   0  0  0  0  0  0  0  0  0  0  0  0
   -4.9192    0.9441    1.4483 F   0  0  0  0  0  0  0  0  0  0  0  0
   -1.9269   -0.0434    0.4117 C   0  0  0  0  0  0  0  0  0  0  0  0
   -1.4322    1.0716    0.5534 O   0  0  0  0  0  0  0  0  0  0  0  0
    2.1127    0.1465   -0.0080 H   0  0  0  0  0  0  0  0  0  0  0  0
    0.7240    0.8738    0.7639 H   0  0  0  0  0  0  0  0  0  0  0  0
    0.7087    0.5720   -0.9571 H   0  0  0  0  0  0  0  0  0  0  0  0
    0.7727   -1.7237   -0.6273 H   0  0  0  0  0  0  0  0  0  0  0  0
    2.5027   -2.9070    2.2859 H   0  0  0  0  0  0  0  0  0  0  0  0
    3.0529   -1.6032   -0.2408 H   0  0  0  0  0  0  0  0  0  0  0  0
    4.0364   -2.7947    0.5787 H   0  0  0  0  0  0  0  0  0  0  0  0
    3.5813   -0.0120    1.6158 H   0  0  0  0  0  0  0  0  0  0  0  0
    4.9768   -0.5075    0.6357 H   0  0  0  0  0  0  0  0  0  0  0  0
    4.2744   -1.5725    3.3388 H   0  0  0  0  0  0  0  0  0  0  0  0
    5.5735   -0.4153    2.9345 H   0  0  0  0  0  0  0  0  0  0  0  0
    5.4320   -3.2786    2.1235 H   0  0  0  0  0  0  0  0  0  0  0  0
    6.5259   -2.5208    3.3126 H   0  0  0  0  0  0  0  0  0  0  0  0
    6.5175   -1.9778    0.3832 H   0  0  0  0  0  0  0  0  0  0  0  0
    7.6672   -3.0023    1.2760 H   0  0  0  0  0  0  0  0  0  0  0  0
    7.3039   -0.0842    1.7605 H   0  0  0  0  0  0  0  0  0  0  0  0
    8.5528   -0.7909    0.7341 H   0  0  0  0  0  0  0  0  0  0  0  0
    8.3015   -1.3753    3.5832 H   0  0  0  0  0  0  0  0  0  0  0  0
   12.3478   -2.0714    1.7048 H   0  0  0  0  0  0  0  0  0  0  0  0
   13.5430   -1.2213   -0.2328 H   0  0  0  0  0  0  0  0  0  0  0  0
   16.4809    7.0021   -4.6574 H   0  0  0  0  0  0  0  0  0  0  0  0
   16.5592    6.2530   -7.1530 H   0  0  0  0  0  0  0  0  0  0  0  0
   14.5986    3.3259   -4.9795 H   0  0  0  0  0  0  0  0  0  0  0  0
   11.9673   -2.4797   -4.6800 H   0  0  0  0  0  0  0  0  0  0  0  0
   11.7549   -1.6750   -2.2804 H   0  0  0  0  0  0  0  0  0  0  0  0
   13.7477    1.2669   -4.4384 H   0  0  0  0  0  0  0  0  0  0  0  0
   13.7768   -0.3055   -9.2188 H   0  0  0  0  0  0  0  0  0  0  0  0
   15.0502    1.8433   -9.7794 H   0  0  0  0  0  0  0  0  0  0  0  0
   14.0948    4.9846   -0.2844 H   0  0  0  0  0  0  0  0  0  0  0  0
   13.2687    2.6591    0.3979 H   0  0  0  0  0  0  0  0  0  0  0  0
   10.7685    1.9357   -0.5477 H   0  0  0  0  0  0  0  0  0  0  0  0
    9.7419    1.2293    1.5303 H   0  0  0  0  0  0  0  0  0  0  0  0
   -1.1329   -3.3219    0.0717 H   0  0  0  0  0  0  0  0  0  0  0  0
   -3.5768   -3.5123    0.2326 H   0  0  0  0  0  0  0  0  0  0  0  0
   -4.9113   -1.5609    0.2955 H   0  0  0  0  0  0  0  0  0  0  0  0
   -3.4950    1.8049    0.3156 H   0  0  0  0  0  0  0  0  0  0  0  0
  1  2  1  0  0  0  0
  1 88  1  0  0  0  0
  1 89  1  0  0  0  0
  1 90  1  0  0  0  0
  2  3  1  0  0  0  0
  2 78  1  0  0  0  0
  2 91  1  6  0  0  0
  3  4  2  0  0  0  0
  3  5  1  0  0  0  0
  5  6  1  0  0  0  0
  5 92  1  0  0  0  0
  6  7  1  0  0  0  0
  6 93  1  0  0  0  0
  6 94  1  0  0  0  0
  7  8  1  0  0  0  0
  7 95  1  0  0  0  0
  7 96  1  0  0  0  0
  8  9  1  0  0  0  0
  8 97  1  0  0  0  0
  8 98  1  0  0  0  0
  9 10  1  0  0  0  0
  9 99  1  0  0  0  0
  9100  1  0  0  0  0
 10 11  1  0  0  0  0
 10101  1  0  0  0  0
 10102  1  0  0  0  0
 11 12  1  0  0  0  0
 11103  1  0  0  0  0
 11104  1  0  0  0  0
 12 13  1  0  0  0  0
 12105  1  0  0  0  0
 13 14  2  0  0  0  0
 13 15  1  0  0  0  0
 15 16  1  0  0  0  0
 15 77  2  0  0  0  0
 16 17  2  0  0  0  0
 16106  1  0  0  0  0
 17 18  1  0  0  0  0
 17107  1  0  0  0  0
 18 19  1  0  0  0  0
 18 76  2  0  0  0  0
 19 20  1  0  0  0  0
 19 70  2  0  0  0  0
 20 21  2  0  0  0  0
 20 75  1  0  0  0  0
 21 22  1  0  0  0  0
 22 23  2  0  0  0  0
 22 74  1  0  0  0  0
 23 24  1  0  0  0  0
 23 35  1  0  0  0  0
 24 25  1  0  0  0  0
 24 33  2  0  0  0  0
 25 26  1  0  0  0  0
 25 27  2  0  0  0  0
 27 28  1  0  0  0  0
 27 29  1  0  0  0  0
 29 30  1  0  0  0  0
 29 31  2  0  0  0  0
 31 32  1  0  0  0  0
 31 33  1  0  0  0  0
 33 34  1  0  0  0  0
 35 36  2  0  0  0  0
 35 39  1  0  0  0  0
 36 37  1  0  0  0  0
 36108  1  0  0  0  0
 37 38  2  0  0  0  0
 37109  1  0  0  0  0
 38 39  1  0  0  0  0
 38 40  1  0  0  0  0
 39110  1  0  0  0  0
 40 41  1  0  0  0  0
 40 52  2  0  0  0  0
 41 42  1  0  0  0  0
 41 50  2  0  0  0  0
 42 43  1  0  0  0  0
 42 44  2  0  0  0  0
 44 45  1  0  0  0  0
 44 46  1  0  0  0  0
 46 47  1  0  0  0  0
 46 48  2  0  0  0  0
 48 49  1  0  0  0  0
 48 50  1  0  0  0  0
 50 51  1  0  0  0  0
 52 53  1  0  0  0  0
 52 73  1  0  0  0  0
 53 54  2  0  0  0  0
 54 55  1  0  0  0  0
 54 72  1  0  0  0  0
 55 56  1  0  0  0  0
 55 67  2  0  0  0  0
 56 57  1  0  0  0  0
 56 65  2  0  0  0  0
 57 58  1  0  0  0  0
 57 59  2  0  0  0  0
 59 60  1  0  0  0  0
 59 61  1  0  0  0  0
 61 62  1  0  0  0  0
 61 63  2  0  0  0  0
 63 64  1  0  0  0  0
 63 65  1  0  0  0  0
 65 66  1  0  0  0  0
 67 68  1  0  0  0  0
 67 71  1  0  0  0  0
 68 69  2  0  0  0  0
 68111  1  0  0  0  0
 69 70  1  0  0  0  0
 69112  1  0  0  0  0
 70 71  1  0  0  0  0
 71113  1  0  0  0  0
 72 73  2  0  0  0  0
 72114  1  0  0  0  0
 73115  1  0  0  0  0
 74 75  2  0  0  0  0
 74116  1  0  0  0  0
 75117  1  0  0  0  0
 76 77  1  0  0  0  0
 76118  1  0  0  0  0
 77119  1  0  0  0  0
 78 79  2  0  0  0  0
 78 86  1  0  0  0  0
 79 80  1  0  0  0  0
 79120  1  0  0  0  0
 80 81  2  0  0  0  0
 80121  1  0  0  0  0
 81 82  1  0  0  0  0
 81122  1  0  0  0  0
 82 83  1  0  0  0  0
 82 86  1  0  0  0  0
 83 84  1  0  0  0  0
 83 85  1  0  0  0  0
 83123  1  0  0  0  0
 86 87  2  0  0  0  0
M  END
$$$$
