1_1_3352
 OpenBabel01102313213D

165177  0  0  1  0  0  0  0  0999 V2000
   -3.3074    1.2665   -4.2562 C   0  0  0  0  0  0  0  0  0  0  0  0
   -1.9172    1.1059   -3.6628 C   0  0  2  0  0  0  0  0  0  0  0  0
   -1.3077   -0.2421   -4.0390 C   0  0  0  0  0  0  0  0  0  0  0  0
    0.0665   -0.4768   -3.3992 C   0  0  0  0  0  0  0  0  0  0  0  0
    0.2467    0.0063   -2.0257 N   0  3  1  0  0  0  0  0  0  0  0  0
    1.6793    0.0436   -1.5741 C   0  0  2  0  0  0  0  0  0  0  0  0
    1.7508    0.0170   -0.0328 C   0  0  0  0  0  0  0  0  0  0  0  0
    1.5891    1.1830    0.7432 C   0  0  0  0  0  0  0  0  0  0  0  0
    1.6353    1.1265    2.1371 C   0  0  0  0  0  0  0  0  0  0  0  0
    1.8847   -0.0867    2.7642 C   0  0  0  0  0  0  0  0  0  0  0  0
    1.9475   -0.1369    4.1013 F   0  0  0  0  0  0  0  0  0  0  0  0
    2.0700   -1.2482    2.0261 C   0  0  0  0  0  0  0  0  0  0  0  0
    1.9828   -1.2013    0.6334 C   0  0  0  0  0  0  0  0  0  0  0  0
    2.6231    1.0998   -2.2204 C   0  0  0  0  0  0  0  0  0  0  0  0
    2.1748    1.9131   -3.2719 C   0  0  0  0  0  0  0  0  0  0  0  0
    2.9882    2.8514   -3.8950 C   0  0  0  0  0  0  0  0  0  0  0  0
    4.2232    3.1833   -3.3699 C   0  0  0  0  0  0  0  0  0  0  0  0
    4.9794    4.4191   -3.8231 C   0  0  1  0  0  0  0  0  0  0  0  0
    5.2466    4.5080   -5.3241 C   0  0  0  0  0  0  0  0  0  0  0  0
    4.4363    5.7226   -3.2055 C   0  0  0  0  0  0  0  0  0  0  0  0
    5.0769    6.2873   -2.3092 O   0  0  0  0  0  0  0  0  0  0  0  0
    3.2779    6.3328   -3.5784 N   0  0  0  0  0  0  0  0  0  0  0  0
    2.2285    5.9733   -4.5102 C   0  0  0  0  0  0  0  0  0  0  0  0
    1.0017    5.3974   -3.7892 C   0  0  0  0  0  0  0  0  0  0  0  0
   -0.0594    6.4415   -3.4364 C   0  0  0  0  0  0  0  0  0  0  0  0
   -0.6924    7.1436   -4.6436 C   0  0  0  0  0  0  0  0  0  0  0  0
   -1.3617    6.2135   -5.6598 C   0  0  0  0  0  0  0  0  0  0  0  0
   -2.5601    5.4476   -5.1076 C   0  0  0  0  0  0  0  0  0  0  0  0
   -3.6400    6.3516   -4.7293 N   0  0  0  0  0  0  0  0  0  0  0  0
   -4.9075    6.4570   -5.2528 C   0  0  0  0  0  0  0  0  0  0  0  0
   -5.6072    7.4324   -5.0192 O   0  0  0  0  0  0  0  0  0  0  0  0
   -5.4194    5.3611   -6.0979 C   0  0  0  0  0  0  0  0  0  0  0  0
   -6.0286    5.6338   -7.3229 C   0  0  0  0  0  0  0  0  0  0  0  0
   -6.4141    4.5730   -8.1497 C   0  0  0  0  0  0  0  0  0  0  0  0
   -6.1474    3.2464   -7.7726 C   0  0  0  0  0  0  0  0  0  0  0  0
   -6.4352    2.0843   -8.6531 C   0  0  0  0  0  0  0  0  0  0  0  0
   -7.3522    0.9927   -8.1729 C   0  0  0  0  0  0  0  0  0  0  0  0
   -7.5895   -0.1818   -8.6993 N   0  0  0  0  0  0  0  0  0  0  0  0
   -8.4543   -0.8197   -7.8200 C   0  0  0  0  0  0  0  0  0  0  0  0
   -9.0489   -2.0284   -7.9515 C   0  0  0  0  0  0  0  0  0  0  0  0
   -9.9550   -2.4928   -6.8474 C   0  0  0  0  0  0  0  0  0  0  0  0
   -9.6184   -3.6161   -6.0760 C   0  0  0  0  0  0  0  0  0  0  0  0
   -8.4552   -4.2531   -6.2792 F   0  0  0  0  0  0  0  0  0  0  0  0
  -10.4870   -4.1057   -5.1043 C   0  0  0  0  0  0  0  0  0  0  0  0
  -10.1594   -5.2017   -4.4060 F   0  0  0  0  0  0  0  0  0  0  0  0
  -11.6925   -3.4653   -4.8622 C   0  0  0  0  0  0  0  0  0  0  0  0
  -12.5210   -3.9286   -3.9163 F   0  0  0  0  0  0  0  0  0  0  0  0
  -12.0382   -2.3430   -5.5993 C   0  0  0  0  0  0  0  0  0  0  0  0
  -13.1903   -1.7058   -5.3487 F   0  0  0  0  0  0  0  0  0  0  0  0
  -11.1881   -1.8722   -6.5962 C   0  0  0  0  0  0  0  0  0  0  0  0
  -11.5553   -0.7901   -7.2993 F   0  0  0  0  0  0  0  0  0  0  0  0
   -8.8768   -2.8898   -9.0903 C   0  0  0  0  0  0  0  0  0  0  0  0
   -9.4979   -4.0971   -9.3542 C   0  0  0  0  0  0  0  0  0  0  0  0
   -8.9735   -4.6045  -10.5445 C   0  0  0  0  0  0  0  0  0  0  0  0
   -8.0755   -3.6820  -11.0583 C   0  0  0  0  0  0  0  0  0  0  0  0
   -8.0213   -2.6362  -10.1524 N   0  0  0  0  0  0  0  0  0  0  0  0
   -7.3203   -3.7580  -12.2841 C   0  0  0  0  0  0  0  0  0  0  0  0
   -7.5134   -4.9902  -13.1186 C   0  0  0  0  0  0  0  0  0  0  0  0
   -8.7439   -5.2259  -13.7527 C   0  0  0  0  0  0  0  0  0  0  0  0
   -9.7090   -4.2943  -13.7224 F   0  0  0  0  0  0  0  0  0  0  0  0
   -9.0078   -6.4423  -14.3745 C   0  0  0  0  0  0  0  0  0  0  0  0
  -10.2109   -6.6671  -14.9205 F   0  0  0  0  0  0  0  0  0  0  0  0
   -8.0366   -7.4311  -14.4049 C   0  0  0  0  0  0  0  0  0  0  0  0
   -8.2951   -8.6069  -14.9936 F   0  0  0  0  0  0  0  0  0  0  0  0
   -6.7995   -7.2041  -13.8189 C   0  0  0  0  0  0  0  0  0  0  0  0
   -5.8541   -8.1529  -13.8645 F   0  0  0  0  0  0  0  0  0  0  0  0
   -6.5422   -5.9988  -13.1705 C   0  0  0  0  0  0  0  0  0  0  0  0
   -5.3468   -5.8159  -12.5898 F   0  0  0  0  0  0  0  0  0  0  0  0
   -6.4697   -2.8043  -12.7338 C   0  0  0  0  0  0  0  0  0  0  0  0
   -6.1535   -1.5814  -12.1577 N   0  0  0  0  0  0  0  0  0  0  0  0
   -5.2890   -1.0143  -12.9633 C   0  0  0  0  0  0  0  0  0  0  0  0
   -4.6257    0.3307  -12.8411 C   0  0  0  0  0  0  0  0  0  0  0  0
   -3.6688    0.8170  -13.8694 C   0  0  0  0  0  0  0  0  0  0  0  0
   -2.3044    0.9780  -13.5848 C   0  0  0  0  0  0  0  0  0  0  0  0
   -1.8262    0.6449  -12.3768 F   0  0  0  0  0  0  0  0  0  0  0  0
   -1.4313    1.5188  -14.5267 C   0  0  0  0  0  0  0  0  0  0  0  0
   -0.1420    1.7055  -14.2125 F   0  0  0  0  0  0  0  0  0  0  0  0
   -1.8979    1.8792  -15.7817 C   0  0  0  0  0  0  0  0  0  0  0  0
   -1.0577    2.3976  -16.6876 F   0  0  0  0  0  0  0  0  0  0  0  0
   -3.2374    1.7035  -16.0951 C   0  0  0  0  0  0  0  0  0  0  0  0
   -3.6885    2.0313  -17.3134 F   0  0  0  0  0  0  0  0  0  0  0  0
   -4.1166    1.1883  -15.1445 C   0  0  0  0  0  0  0  0  0  0  0  0
   -5.4084    1.0357  -15.4702 F   0  0  0  0  0  0  0  0  0  0  0  0
   -4.9266    1.1231  -11.7932 C   0  0  0  0  0  0  0  0  0  0  0  0
   -4.3500    2.4403  -11.5375 C   0  0  0  0  0  0  0  0  0  0  0  0
   -4.8185    2.9055  -10.3693 C   0  0  0  0  0  0  0  0  0  0  0  0
   -5.7724    1.9434   -9.8178 C   0  0  0  0  0  0  0  0  0  0  0  0
   -5.7808    0.9214  -10.7362 N   0  0  0  0  0  0  0  0  0  0  0  0
   -4.9367   -1.8315  -14.1336 C   0  0  0  0  0  0  0  0  0  0  0  0
   -5.7060   -2.8991  -13.9601 C   0  0  0  0  0  0  0  0  0  0  0  0
   -8.6537    0.0698   -6.6980 C   0  0  0  0  0  0  0  0  0  0  0  0
   -8.0657    1.2377   -6.9086 C   0  0  0  0  0  0  0  0  0  0  0  0
   -5.5765    2.9981   -6.5166 C   0  0  0  0  0  0  0  0  0  0  0  0
   -5.2727    4.0466   -5.6608 C   0  0  0  0  0  0  0  0  0  0  0  0
    4.7278    2.3468   -2.3664 C   0  0  0  0  0  0  0  0  0  0  0  0
    3.9863    1.2546   -1.8422 C   0  0  0  0  0  0  0  0  0  0  0  0
    4.7068    0.3004   -0.9762 C   0  0  0  0  0  0  0  0  0  0  0  0
    5.2981    0.7032    0.2302 C   0  0  0  0  0  0  0  0  0  0  0  0
    5.9902   -0.2116    1.0311 C   0  0  0  0  0  0  0  0  0  0  0  0
    6.1042   -1.5557    0.6470 C   0  0  0  0  0  0  0  0  0  0  0  0
    6.8418   -2.5365    1.5237 C   0  0  0  0  0  0  0  0  0  0  0  0
    8.1857   -2.3180    1.5330 F   0  0  0  0  0  0  0  0  0  0  0  0
    6.4436   -2.4825    2.8250 F   0  0  0  0  0  0  0  0  0  0  0  0
    6.6784   -3.8348    1.1410 F   0  0  0  0  0  0  0  0  0  0  0  0
    5.5396   -1.9587   -0.5694 C   0  0  0  0  0  0  0  0  0  0  0  0
    4.8620   -1.0387   -1.3734 C   0  0  0  0  0  0  0  0  0  0  0  0
   -0.5726    1.1263   -1.5647 C   0  0  0  0  0  0  0  0  0  0  0  0
   -1.9775    1.1840   -2.1464 C   0  0  0  0  0  0  0  0  0  0  0  0
   -3.2486    1.2093   -5.3231 H   0  0  0  0  0  0  0  0  0  0  0  0
   -3.7092    2.2165   -3.9715 H   0  0  0  0  0  0  0  0  0  0  0  0
   -3.9430    0.4867   -3.8917 H   0  0  0  0  0  0  0  0  0  0  0  0
   -1.3129    1.8965   -4.0560 H   0  0  0  0  0  0  0  0  0  0  0  0
   -1.2002   -0.2829   -5.1028 H   0  0  0  0  0  0  0  0  0  0  0  0
   -1.9650   -1.0039   -3.6750 H   0  0  0  0  0  0  0  0  0  0  0  0
    0.7964    0.0096   -4.0120 H   0  0  0  0  0  0  0  0  0  0  0  0
    0.1696   -1.5401   -3.3383 H   0  0  0  0  0  0  0  0  0  0  0  0
   -0.1956   -0.7487   -1.5015 H   0  0  0  0  0  0  0  0  0  0  0  0
    2.1037   -0.8538   -1.9734 H   0  0  0  0  0  0  0  0  0  0  0  0
    1.4347    2.0895    0.2748 H   0  0  0  0  0  0  0  0  0  0  0  0
    1.4852    1.9801    2.6973 H   0  0  0  0  0  0  0  0  0  0  0  0
    2.2709   -2.1405    2.5040 H   0  0  0  0  0  0  0  0  0  0  0  0
    2.0896   -2.0697    0.0861 H   0  0  0  0  0  0  0  0  0  0  0  0
    1.2004    1.8102   -3.5960 H   0  0  0  0  0  0  0  0  0  0  0  0
    2.6656    3.3074   -4.7628 H   0  0  0  0  0  0  0  0  0  0  0  0
    5.9587    4.2888   -3.4120 H   0  0  0  0  0  0  0  0  0  0  0  0
    4.3209    4.6413   -5.8439 H   0  0  0  0  0  0  0  0  0  0  0  0
    5.7158    3.6058   -5.6569 H   0  0  0  0  0  0  0  0  0  0  0  0
    5.8903    5.3392   -5.5232 H   0  0  0  0  0  0  0  0  0  0  0  0
    3.1218    7.1916   -3.1230 H   0  0  0  0  0  0  0  0  0  0  0  0
    2.6062    5.2399   -5.1917 H   0  0  0  0  0  0  0  0  0  0  0  0
    1.9254    6.8587   -5.0289 H   0  0  0  0  0  0  0  0  0  0  0  0
    1.3311    4.9330   -2.8833 H   0  0  0  0  0  0  0  0  0  0  0  0
    0.5427    4.7051   -4.4637 H   0  0  0  0  0  0  0  0  0  0  0  0
    0.3980    7.1865   -2.8194 H   0  0  0  0  0  0  0  0  0  0  0  0
   -0.8500    5.9150   -2.9438 H   0  0  0  0  0  0  0  0  0  0  0  0
    0.0761    7.6894   -5.1500 H   0  0  0  0  0  0  0  0  0  0  0  0
   -1.4701    7.7656   -4.2521 H   0  0  0  0  0  0  0  0  0  0  0  0
   -0.6348    5.5037   -5.9954 H   0  0  0  0  0  0  0  0  0  0  0  0
   -1.7293    6.8336   -6.4506 H   0  0  0  0  0  0  0  0  0  0  0  0
   -2.2521    4.8932   -4.2458 H   0  0  0  0  0  0  0  0  0  0  0  0
   -2.9218    4.7914   -5.8715 H   0  0  0  0  0  0  0  0  0  0  0  0
   -3.4325    6.9744   -3.9956 H   0  0  0  0  0  0  0  0  0  0  0  0
   -6.1934    6.6093   -7.6166 H   0  0  0  0  0  0  0  0  0  0  0  0
   -6.8968    4.7661   -9.0411 H   0  0  0  0  0  0  0  0  0  0  0  0
  -10.2230   -4.5451   -8.7723 H   0  0  0  0  0  0  0  0  0  0  0  0
   -9.2140   -5.5134  -10.9701 H   0  0  0  0  0  0  0  0  0  0  0  0
   -7.4598   -1.8331  -10.2478 H   0  0  0  0  0  0  0  0  0  0  0  0
   -3.6881    2.9343  -12.1563 H   0  0  0  0  0  0  0  0  0  0  0  0
   -4.5488    3.7995   -9.9300 H   0  0  0  0  0  0  0  0  0  0  0  0
   -6.3456    0.1202  -10.6454 H   0  0  0  0  0  0  0  0  0  0  0  0
   -4.2666   -1.6282  -14.8917 H   0  0  0  0  0  0  0  0  0  0  0  0
   -5.7537   -3.6949  -14.6154 H   0  0  0  0  0  0  0  0  0  0  0  0
   -9.1836   -0.1729   -5.8464 H   0  0  0  0  0  0  0  0  0  0  0  0
   -8.0990    2.0956   -6.3359 H   0  0  0  0  0  0  0  0  0  0  0  0
   -5.3806    2.0273   -6.2263 H   0  0  0  0  0  0  0  0  0  0  0  0
   -4.9391    3.8535   -4.7035 H   0  0  0  0  0  0  0  0  0  0  0  0
    5.6727    2.5306   -1.9943 H   0  0  0  0  0  0  0  0  0  0  0  0
    5.2216    1.6874    0.5310 H   0  0  0  0  0  0  0  0  0  0  0  0
    6.4212    0.1058    1.9134 H   0  0  0  0  0  0  0  0  0  0  0  0
    5.6245   -2.9411   -0.8738 H   0  0  0  0  0  0  0  0  0  0  0  0
    4.4682   -1.3482   -2.2757 H   0  0  0  0  0  0  0  0  0  0  0  0
   -0.0691    2.0339   -1.8249 H   0  0  0  0  0  0  0  0  0  0  0  0
   -0.6932    0.9916   -0.5101 H   0  0  0  0  0  0  0  0  0  0  0  0
   -2.5499    0.3612   -1.7719 H   0  0  0  0  0  0  0  0  0  0  0  0
   -2.4377    2.1068   -1.8608 H   0  0  0  0  0  0  0  0  0  0  0  0
  1  2  1  0  0  0  0
  1109  1  0  0  0  0
  1110  1  0  0  0  0
  1111  1  0  0  0  0
  2  3  1  0  0  0  0
  2108  1  0  0  0  0
  2112  1  6  0  0  0
  3  4  1  0  0  0  0
  3113  1  0  0  0  0
  3114  1  0  0  0  0
  4  5  1  0  0  0  0
  4115  1  0  0  0  0
  4116  1  0  0  0  0
  5107  1  0  0  0  0
  5117  1  1  0  0  0
  6 14  1  0  0  0  0
  6  7  1  0  0  0  0
  6  5  1  0  0  0  0
  6118  1  6  0  0  0
  7  8  1  0  0  0  0
  7 13  2  0  0  0  0
  8  9  2  0  0  0  0
  8119  1  0  0  0  0
  9 10  1  0  0  0  0
  9120  1  0  0  0  0
 10 11  1  0  0  0  0
 10 12  2  0  0  0  0
 12 13  1  0  0  0  0
 12121  1  0  0  0  0
 13122  1  0  0  0  0
 14 15  1  0  0  0  0
 14 96  2  0  0  0  0
 15 16  2  0  0  0  0
 15123  1  0  0  0  0
 16 17  1  0  0  0  0
 16124  1  0  0  0  0
 17 18  1  0  0  0  0
 17 95  2  0  0  0  0
 18 19  1  0  0  0  0
 18 20  1  0  0  0  0
 18125  1  1  0  0  0
 19126  1  0  0  0  0
 19127  1  0  0  0  0
 19128  1  0  0  0  0
 20 21  2  0  0  0  0
 20 22  1  0  0  0  0
 22 23  1  0  0  0  0
 22129  1  0  0  0  0
 23 24  1  0  0  0  0
 23130  1  0  0  0  0
 23131  1  0  0  0  0
 24 25  1  0  0  0  0
 24132  1  0  0  0  0
 24133  1  0  0  0  0
 25 26  1  0  0  0  0
 25134  1  0  0  0  0
 25135  1  0  0  0  0
 26 27  1  0  0  0  0
 26136  1  0  0  0  0
 26137  1  0  0  0  0
 27 28  1  0  0  0  0
 27138  1  0  0  0  0
 27139  1  0  0  0  0
 28 29  1  0  0  0  0
 28140  1  0  0  0  0
 28141  1  0  0  0  0
 29 30  1  0  0  0  0
 29142  1  0  0  0  0
 30 31  2  0  0  0  0
 30 32  1  0  0  0  0
 32 33  1  0  0  0  0
 32 94  2  0  0  0  0
 33 34  2  0  0  0  0
 33143  1  0  0  0  0
 34 35  1  0  0  0  0
 34144  1  0  0  0  0
 35 36  1  0  0  0  0
 35 93  2  0  0  0  0
 36 37  1  0  0  0  0
 36 87  2  0  0  0  0
 37 38  2  0  0  0  0
 37 92  1  0  0  0  0
 38 39  1  0  0  0  0
 39 40  2  0  0  0  0
 39 91  1  0  0  0  0
 40 41  1  0  0  0  0
 40 52  1  0  0  0  0
 41 42  1  0  0  0  0
 41 50  2  0  0  0  0
 42 43  1  0  0  0  0
 42 44  2  0  0  0  0
 44 45  1  0  0  0  0
 44 46  1  0  0  0  0
 46 47  1  0  0  0  0
 46 48  2  0  0  0  0
 48 49  1  0  0  0  0
 48 50  1  0  0  0  0
 50 51  1  0  0  0  0
 52 53  2  0  0  0  0
 52 56  1  0  0  0  0
 53 54  1  0  0  0  0
 53145  1  0  0  0  0
 54 55  2  0  0  0  0
 54146  1  0  0  0  0
 55 56  1  0  0  0  0
 55 57  1  0  0  0  0
 56147  1  0  0  0  0
 57 58  1  0  0  0  0
 57 69  2  0  0  0  0
 58 59  1  0  0  0  0
 58 67  2  0  0  0  0
 59 60  1  0  0  0  0
 59 61  2  0  0  0  0
 61 62  1  0  0  0  0
 61 63  1  0  0  0  0
 63 64  1  0  0  0  0
 63 65  2  0  0  0  0
 65 66  1  0  0  0  0
 65 67  1  0  0  0  0
 67 68  1  0  0  0  0
 69 70  1  0  0  0  0
 69 90  1  0  0  0  0
 70 71  2  0  0  0  0
 71 72  1  0  0  0  0
 71 89  1  0  0  0  0
 72 73  1  0  0  0  0
 72 84  2  0  0  0  0
 73 74  1  0  0  0  0
 73 82  2  0  0  0  0
 74 75  1  0  0  0  0
 74 76  2  0  0  0  0
 76 77  1  0  0  0  0
 76 78  1  0  0  0  0
 78 79  1  0  0  0  0
 78 80  2  0  0  0  0
 80 81  1  0  0  0  0
 80 82  1  0  0  0  0
 82 83  1  0  0  0  0
 84 85  1  0  0  0  0
 84 88  1  0  0  0  0
 85 86  2  0  0  0  0
 85148  1  0  0  0  0
 86 87  1  0  0  0  0
 86149  1  0  0  0  0
 87 88  1  0  0  0  0
 88150  1  0  0  0  0
 89 90  2  0  0  0  0
 89151  1  0  0  0  0
 90152  1  0  0  0  0
 91 92  2  0  0  0  0
 91153  1  0  0  0  0
 92154  1  0  0  0  0
 93 94  1  0  0  0  0
 93155  1  0  0  0  0
 94156  1  0  0  0  0
 95 96  1  0  0  0  0
 95157  1  0  0  0  0
 96 97  1  0  0  0  0
 97 98  1  0  0  0  0
 97106  2  0  0  0  0
 98 99  2  0  0  0  0
 98158  1  0  0  0  0
 99100  1  0  0  0  0
 99159  1  0  0  0  0
100101  1  0  0  0  0
100105  2  0  0  0  0
101102  1  0  0  0  0
101103  1  0  0  0  0
101104  1  0  0  0  0
105106  1  0  0  0  0
105160  1  0  0  0  0
106161  1  0  0  0  0
107108  1  0  0  0  0
107162  1  0  0  0  0
107163  1  0  0  0  0
108164  1  0  0  0  0
108165  1  0  0  0  0
M  CHG  1   5   1
M  END
$$$$
