1_1_3105
 OpenBabel01102313213D

131141  0  0  0  0  0  0  0  0999 V2000
    1.0404   -0.0182   -0.0896 O   0  0  0  0  0  0  0  0  0  0  0  0
    2.3113   -0.0182   -0.0896 C   0  0  0  0  0  0  0  0  0  0  0  0
    3.0463    0.9857    0.6932 N   0  0  0  0  0  0  0  0  0  0  0  0
    4.5163    0.9857    0.6932 C   0  0  0  0  0  0  0  0  0  0  0  0
    5.0230    2.3139    0.1551 C   0  0  0  0  0  0  0  0  0  0  0  0
    4.5163    3.4440    1.0363 C   0  0  0  0  0  0  0  0  0  0  0  0
    5.0230    3.2459    2.4556 C   0  0  0  0  0  0  0  0  0  0  0  0
    6.5430    3.2459    2.4556 C   0  0  0  0  0  0  0  0  0  0  0  0
    7.0497    4.5742    1.9175 C   0  0  0  0  0  0  0  0  0  0  0  0
    6.5597    5.6671    2.7697 N   0  0  0  0  0  0  0  0  0  0  0  0
    7.5150    6.5482    3.4568 C   0  0  0  0  0  0  0  0  0  0  0  0
    7.0913    7.4931    4.1936 O   0  0  0  0  0  0  0  0  0  0  0  0
    9.0094    6.3292    3.2860 C   0  0  0  0  0  0  0  0  0  0  0  0
    9.8333    6.3681    4.3987 C   0  0  0  0  0  0  0  0  0  0  0  0
   11.2118    6.4445    4.0889 C   0  0  0  0  0  0  0  0  0  0  0  0
   11.7326    6.1473    2.9123 C   0  0  0  0  0  0  0  0  0  0  0  0
   10.8577    6.0562    1.8655 C   0  0  0  0  0  0  0  0  0  0  0  0
    9.5003    6.1040    2.0729 C   0  0  0  0  0  0  0  0  0  0  0  0
    8.5831    5.9042    0.9416 N   0  0  0  0  0  0  0  0  0  0  0  0
    9.1194    5.6546   -0.4041 C   0  0  0  0  0  0  0  0  0  0  0  0
    8.8405    6.5592   -1.4152 C   0  0  0  0  0  0  0  0  0  0  0  0
    9.1888    6.1001   -2.7075 C   0  0  0  0  0  0  0  0  0  0  0  0
   10.0162    5.0995   -2.9490 C   0  0  0  0  0  0  0  0  0  0  0  0
   10.3059    4.2814   -1.8925 C   0  0  0  0  0  0  0  0  0  0  0  0
   11.2517    2.7638   -2.1727 S   0  0  0  0  0  0  0  0  0  0  0  0
   11.7950    2.7409   -0.6828 F   0  0  0  0  0  0  0  0  0  0  0  0
   12.5168    3.6245   -2.5480 F   0  0  0  0  0  0  0  0  0  0  0  0
   12.0411    1.4465   -2.4158 F   0  0  0  0  0  0  0  0  0  0  0  0
   10.0189    1.9206   -1.6590 F   0  0  0  0  0  0  0  0  0  0  0  0
   10.4740    4.0924   -1.8136 F   0  0  0  0  0  0  0  0  0  0  0  0
    9.8893    4.5947   -0.6212 C   0  0  0  0  0  0  0  0  0  0  0  0
    3.0713   -1.0563   -0.8991 C   0  0  0  0  0  0  0  0  0  0  0  0
    4.0696   -1.7223   -0.2074 C   0  0  0  0  0  0  0  0  0  0  0  0
    4.8873   -2.5379   -1.0248 C   0  0  0  0  0  0  0  0  0  0  0  0
    4.5638   -2.9448   -2.2389 C   0  0  0  0  0  0  0  0  0  0  0  0
    5.3067   -4.0774   -2.9284 C   0  0  0  0  0  0  0  0  0  0  0  0
    5.9732   -3.8839   -4.1396 C   0  0  0  0  0  0  0  0  0  0  0  0
    6.6100   -4.7983   -4.8729 N   0  0  0  0  0  0  0  0  0  0  0  0
    7.1416   -4.2307   -5.9577 C   0  0  0  0  0  0  0  0  0  0  0  0
    7.8947   -4.8491   -6.9569 C   0  0  0  0  0  0  0  0  0  0  0  0
    8.4342   -3.9865   -8.0861 C   0  0  0  0  0  0  0  0  0  0  0  0
    9.4051   -3.0175   -7.8942 C   0  0  0  0  0  0  0  0  0  0  0  0
   10.0239   -2.8310   -6.7317 F   0  0  0  0  0  0  0  0  0  0  0  0
    9.6788   -2.2440   -9.0469 C   0  0  0  0  0  0  0  0  0  0  0  0
   10.3091   -1.0849   -8.8789 F   0  0  0  0  0  0  0  0  0  0  0  0
    9.3520   -2.5928  -10.2779 C   0  0  0  0  0  0  0  0  0  0  0  0
    9.8826   -1.9939  -11.3403 F   0  0  0  0  0  0  0  0  0  0  0  0
    8.4387   -3.6028  -10.4016 C   0  0  0  0  0  0  0  0  0  0  0  0
    7.9449   -3.8967  -11.6010 F   0  0  0  0  0  0  0  0  0  0  0  0
    8.0238   -4.3186   -9.3046 C   0  0  0  0  0  0  0  0  0  0  0  0
    7.2038   -5.3534   -9.4645 F   0  0  0  0  0  0  0  0  0  0  0  0
    8.1783   -6.2056   -6.9772 C   0  0  0  0  0  0  0  0  0  0  0  0
    8.9424   -6.8435   -7.9730 C   0  0  0  0  0  0  0  0  0  0  0  0
    9.0009   -8.1691   -7.6750 C   0  0  0  0  0  0  0  0  0  0  0  0
    8.2733   -8.3807   -6.4883 C   0  0  0  0  0  0  0  0  0  0  0  0
    7.7843   -7.1633   -6.0691 N   0  0  0  0  0  0  0  0  0  0  0  0
    8.1054   -9.6182   -5.8866 C   0  0  0  0  0  0  0  0  0  0  0  0
    8.7398  -10.8281   -6.5531 C   0  0  0  0  0  0  0  0  0  0  0  0
    7.8421  -11.7813   -7.0050 C   0  0  0  0  0  0  0  0  0  0  0  0
    6.5276  -11.5817   -7.0380 F   0  0  0  0  0  0  0  0  0  0  0  0
    8.4505  -12.9866   -7.4281 C   0  0  0  0  0  0  0  0  0  0  0  0
    7.6797  -14.0654   -7.5323 F   0  0  0  0  0  0  0  0  0  0  0  0
    9.7305  -13.1149   -7.7268 C   0  0  0  0  0  0  0  0  0  0  0  0
   10.1920  -14.1682   -8.3949 F   0  0  0  0  0  0  0  0  0  0  0  0
   10.5557  -12.1066   -7.3122 C   0  0  0  0  0  0  0  0  0  0  0  0
   11.8727  -12.2447   -7.4364 F   0  0  0  0  0  0  0  0  0  0  0  0
   10.0440  -10.9529   -6.7692 C   0  0  0  0  0  0  0  0  0  0  0  0
   10.8624   -9.9520   -6.4572 F   0  0  0  0  0  0  0  0  0  0  0  0
    7.3891   -9.8208   -4.7057 C   0  0  0  0  0  0  0  0  0  0  0  0
    6.7877   -8.8989   -3.9511 N   0  0  0  0  0  0  0  0  0  0  0  0
    6.2229   -9.4729   -2.8876 C   0  0  0  0  0  0  0  0  0  0  0  0
    5.5190   -8.8443   -1.8576 C   0  0  0  0  0  0  0  0  0  0  0  0
    4.9937   -9.7040   -0.7195 C   0  0  0  0  0  0  0  0  0  0  0  0
    5.8338  -10.5715   -0.0411 C   0  0  0  0  0  0  0  0  0  0  0  0
    7.1564  -10.4330   -0.0210 F   0  0  0  0  0  0  0  0  0  0  0  0
    5.1572  -11.6183    0.6286 C   0  0  0  0  0  0  0  0  0  0  0  0
    5.8688  -12.6809    0.9938 F   0  0  0  0  0  0  0  0  0  0  0  0
    3.8683  -11.6136    0.9163 C   0  0  0  0  0  0  0  0  0  0  0  0
    3.3430  -12.4639    1.7937 F   0  0  0  0  0  0  0  0  0  0  0  0
    3.1030  -10.6876    0.2635 C   0  0  0  0  0  0  0  0  0  0  0  0
    1.7790  -10.7302    0.3824 F   0  0  0  0  0  0  0  0  0  0  0  0
    3.6819   -9.7135   -0.5137 C   0  0  0  0  0  0  0  0  0  0  0  0
    2.9216   -8.7717   -1.0647 F   0  0  0  0  0  0  0  0  0  0  0  0
    5.2726   -7.4811   -1.8147 C   0  0  0  0  0  0  0  0  0  0  0  0
    4.5710   -6.8328   -0.7807 C   0  0  0  0  0  0  0  0  0  0  0  0
    4.5125   -5.5083   -1.0785 C   0  0  0  0  0  0  0  0  0  0  0  0
    5.1759   -5.3063   -2.3046 C   0  0  0  0  0  0  0  0  0  0  0  0
    5.6455   -6.5272   -2.7357 N   0  0  0  0  0  0  0  0  0  0  0  0
    6.4621  -10.9202   -2.9600 C   0  0  0  0  0  0  0  0  0  0  0  0
    7.1820  -11.1354   -4.0829 C   0  0  0  0  0  0  0  0  0  0  0  0
    6.8055   -2.8006   -5.9430 C   0  0  0  0  0  0  0  0  0  0  0  0
    6.0839   -2.5857   -4.8212 C   0  0  0  0  0  0  0  0  0  0  0  0
    3.5246   -2.2923   -2.8421 C   0  0  0  0  0  0  0  0  0  0  0  0
    2.7611   -1.3853   -2.1476 C   0  0  0  0  0  0  0  0  0  0  0  0
    2.5541    1.6581    1.2175 H   0  0  0  0  0  0  0  0  0  0  0  0
    4.8730    0.1902    0.0729 H   0  0  0  0  0  0  0  0  0  0  0  0
    4.8730    0.8463    1.6923 H   0  0  0  0  0  0  0  0  0  0  0  0
    4.6664    2.4533   -0.8440 H   0  0  0  0  0  0  0  0  0  0  0  0
    6.0930    2.3139    0.1551 H   0  0  0  0  0  0  0  0  0  0  0  0
    3.4463    3.4440    1.0363 H   0  0  0  0  0  0  0  0  0  0  0  0
    4.8729    4.3790    0.6575 H   0  0  0  0  0  0  0  0  0  0  0  0
    4.6663    2.3109    2.8344 H   0  0  0  0  0  0  0  0  0  0  0  0
    4.6663    4.0414    3.0759 H   0  0  0  0  0  0  0  0  0  0  0  0
    6.8997    2.4504    1.8353 H   0  0  0  0  0  0  0  0  0  0  0  0
    6.8997    3.1064    3.4547 H   0  0  0  0  0  0  0  0  0  0  0  0
    6.6931    4.7137    0.9184 H   0  0  0  0  0  0  0  0  0  0  0  0
    8.1197    4.5742    1.9175 H   0  0  0  0  0  0  0  0  0  0  0  0
    5.5918    5.8090    2.8803 H   0  0  0  0  0  0  0  0  0  0  0  0
    9.4743    6.3436    5.3659 H   0  0  0  0  0  0  0  0  0  0  0  0
   11.8550    6.7540    4.8343 H   0  0  0  0  0  0  0  0  0  0  0  0
   12.7455    5.9922    2.7895 H   0  0  0  0  0  0  0  0  0  0  0  0
   11.2221    5.9500    0.9058 H   0  0  0  0  0  0  0  0  0  0  0  0
    7.6097    5.9376    1.0852 H   0  0  0  0  0  0  0  0  0  0  0  0
    8.4170    7.4842   -1.2417 H   0  0  0  0  0  0  0  0  0  0  0  0
    8.7670    6.5805   -3.5176 H   0  0  0  0  0  0  0  0  0  0  0  0
   10.4223    4.9435   -3.8848 H   0  0  0  0  0  0  0  0  0  0  0  0
   10.1774    4.0009    0.1722 H   0  0  0  0  0  0  0  0  0  0  0  0
    4.2047   -1.6318    0.8117 H   0  0  0  0  0  0  0  0  0  0  0  0
    5.7999   -2.8355   -0.6460 H   0  0  0  0  0  0  0  0  0  0  0  0
    9.3814   -6.3852   -8.7868 H   0  0  0  0  0  0  0  0  0  0  0  0
    9.4923   -8.8928   -8.2225 H   0  0  0  0  0  0  0  0  0  0  0  0
    7.2461   -7.0050   -5.2601 H   0  0  0  0  0  0  0  0  0  0  0  0
    4.1712   -7.2843    0.0567 H   0  0  0  0  0  0  0  0  0  0  0  0
    4.0609   -4.7778   -0.5063 H   0  0  0  0  0  0  0  0  0  0  0  0
    6.1590   -6.6900   -3.5598 H   0  0  0  0  0  0  0  0  0  0  0  0
    6.1429  -11.6330   -2.2854 H   0  0  0  0  0  0  0  0  0  0  0  0
    7.5202  -12.0449   -4.4343 H   0  0  0  0  0  0  0  0  0  0  0  0
    7.0691   -2.0976   -6.6511 H   0  0  0  0  0  0  0  0  0  0  0  0
    5.6880   -1.6867   -4.5047 H   0  0  0  0  0  0  0  0  0  0  0  0
    3.3106   -2.4838   -3.8333 H   0  0  0  0  0  0  0  0  0  0  0  0
    1.9391   -0.9559   -2.6004 H   0  0  0  0  0  0  0  0  0  0  0  0
  1  2  2  0  0  0  0
  2  3  1  0  0  0  0
  2 32  1  0  0  0  0
  3  4  1  0  0  0  0
  3 95  1  0  0  0  0
  4  5  1  0  0  0  0
  4 96  1  0  0  0  0
  4 97  1  0  0  0  0
  5  6  1  0  0  0  0
  5 98  1  0  0  0  0
  5 99  1  0  0  0  0
  6  7  1  0  0  0  0
  6100  1  0  0  0  0
  6101  1  0  0  0  0
  7  8  1  0  0  0  0
  7102  1  0  0  0  0
  7103  1  0  0  0  0
  8  9  1  0  0  0  0
  8104  1  0  0  0  0
  8105  1  0  0  0  0
  9 10  1  0  0  0  0
  9106  1  0  0  0  0
  9107  1  0  0  0  0
 10 11  1  0  0  0  0
 10108  1  0  0  0  0
 11 12  2  0  0  0  0
 11 13  1  0  0  0  0
 13 14  1  0  0  0  0
 13 18  2  0  0  0  0
 14 15  2  0  0  0  0
 14109  1  0  0  0  0
 15 16  1  0  0  0  0
 15110  1  0  0  0  0
 16 17  2  0  0  0  0
 16111  1  0  0  0  0
 17 18  1  0  0  0  0
 17112  1  0  0  0  0
 18 19  1  0  0  0  0
 19 20  1  0  0  0  0
 19113  1  0  0  0  0
 20 21  1  0  0  0  0
 20 31  2  0  0  0  0
 21 22  2  0  0  0  0
 21114  1  0  0  0  0
 22 23  1  0  0  0  0
 22115  1  0  0  0  0
 23 24  2  0  0  0  0
 23116  1  0  0  0  0
 24 25  1  0  0  0  0
 24 31  1  0  0  0  0
 25 26  1  0  0  0  0
 25 27  1  0  0  0  0
 25 28  1  0  0  0  0
 25 29  1  0  0  0  0
 25 30  1  0  0  0  0
 31117  1  0  0  0  0
 32 33  1  0  0  0  0
 32 94  2  0  0  0  0
 33 34  2  0  0  0  0
 33118  1  0  0  0  0
 34 35  1  0  0  0  0
 34119  1  0  0  0  0
 35 36  1  0  0  0  0
 35 93  2  0  0  0  0
 36 37  1  0  0  0  0
 36 87  2  0  0  0  0
 37 38  2  0  0  0  0
 37 92  1  0  0  0  0
 38 39  1  0  0  0  0
 39 40  2  0  0  0  0
 39 91  1  0  0  0  0
 40 41  1  0  0  0  0
 40 52  1  0  0  0  0
 41 42  1  0  0  0  0
 41 50  2  0  0  0  0
 42 43  1  0  0  0  0
 42 44  2  0  0  0  0
 44 45  1  0  0  0  0
 44 46  1  0  0  0  0
 46 47  1  0  0  0  0
 46 48  2  0  0  0  0
 48 49  1  0  0  0  0
 48 50  1  0  0  0  0
 50 51  1  0  0  0  0
 52 53  2  0  0  0  0
 52 56  1  0  0  0  0
 53 54  1  0  0  0  0
 53120  1  0  0  0  0
 54 55  2  0  0  0  0
 54121  1  0  0  0  0
 55 56  1  0  0  0  0
 55 57  1  0  0  0  0
 56122  1  0  0  0  0
 57 58  1  0  0  0  0
 57 69  2  0  0  0  0
 58 59  1  0  0  0  0
 58 67  2  0  0  0  0
 59 60  1  0  0  0  0
 59 61  2  0  0  0  0
 61 62  1  0  0  0  0
 61 63  1  0  0  0  0
 63 64  1  0  0  0  0
 63 65  2  0  0  0  0
 65 66  1  0  0  0  0
 65 67  1  0  0  0  0
 67 68  1  0  0  0  0
 69 70  1  0  0  0  0
 69 90  1  0  0  0  0
 70 71  2  0  0  0  0
 71 72  1  0  0  0  0
 71 89  1  0  0  0  0
 72 73  1  0  0  0  0
 72 84  2  0  0  0  0
 73 74  1  0  0  0  0
 73 82  2  0  0  0  0
 74 75  1  0  0  0  0
 74 76  2  0  0  0  0
 76 77  1  0  0  0  0
 76 78  1  0  0  0  0
 78 79  1  0  0  0  0
 78 80  2  0  0  0  0
 80 81  1  0  0  0  0
 80 82  1  0  0  0  0
 82 83  1  0  0  0  0
 84 85  1  0  0  0  0
 84 88  1  0  0  0  0
 85 86  2  0  0  0  0
 85123  1  0  0  0  0
 86 87  1  0  0  0  0
 86124  1  0  0  0  0
 87 88  1  0  0  0  0
 88125  1  0  0  0  0
 89 90  2  0  0  0  0
 89126  1  0  0  0  0
 90127  1  0  0  0  0
 91 92  2  0  0  0  0
 91128  1  0  0  0  0
 92129  1  0  0  0  0
 93 94  1  0  0  0  0
 93130  1  0  0  0  0
 94131  1  0  0  0  0
M  END
$$$$
