1_1_2669
 OpenBabel01102313213D

177189  0  0  1  0  0  0  0  0999 V2000
    1.1176    1.5798    1.5741 C   0  0  0  0  0  0  0  0  0  0  0  0
    0.4083    0.7364    2.3401 C   0  0  0  0  0  0  0  0  0  0  0  0
   -0.9260    0.0353    2.0029 C   0  0  2  0  0  0  0  0  0  0  0  0
   -0.9307   -1.9568    2.0252 C   0  0  1  0  0  0  0  0  0  0  0  0
   -1.6556   -2.4995    3.1610 O   0  0  0  0  0  0  0  0  0  0  0  0
   -1.5198   -2.9174    0.3891 C   0  0  0  0  0  0  0  0  0  0  0  0
   -2.3423   -1.9034   -1.0595 C   0  0  1  0  0  0  0  0  0  0  0  0
   -2.4565   -0.0082   -1.0060 C   0  0  2  0  0  0  0  0  0  0  0  0
   -3.7394    0.3312   -1.7866 C   0  0  0  0  0  0  0  0  0  0  0  0
   -3.7440   -0.2983   -3.1858 C   0  0  0  0  0  0  0  0  0  0  0  0
   -3.7127   -1.8607   -3.2708 C   0  0  2  0  0  0  0  0  0  0  0  0
   -3.8311   -2.2296   -4.7710 C   0  0  0  0  0  0  0  0  0  0  0  0
   -4.7889   -2.7057   -2.4790 C   0  0  1  0  0  0  0  0  0  0  0  0
   -6.3187   -2.7835   -2.7416 C   0  0  2  0  0  0  0  0  0  0  0  0
   -6.8544   -3.9712   -3.5476 C   0  0  0  0  0  0  0  0  0  0  0  0
   -6.9397   -1.4513   -3.2102 C   0  0  0  0  0  0  0  0  0  0  0  0
   -8.2184   -1.0412   -2.4718 C   0  0  0  0  0  0  0  0  0  0  0  0
   -7.9236   -0.4098   -1.1294 C   0  0  0  0  0  0  0  0  0  0  0  0
   -7.9485    0.9085   -0.8420 C   0  0  0  0  0  0  0  0  0  0  0  0
   -7.6832    1.4178    0.5494 C   0  0  0  0  0  0  0  0  0  0  0  0
   -8.2315    1.9749   -1.8643 C   0  0  0  0  0  0  0  0  0  0  0  0
   -4.0608   -4.0709   -2.2132 C   0  0  0  0  0  0  0  0  0  0  0  0
   -2.5748   -3.8904   -2.5818 C   0  0  0  0  0  0  0  0  0  0  0  0
   -2.3613   -2.3798   -2.5663 C   0  0  2  0  0  0  0  0  0  0  0  0
   -1.1082   -1.9405   -3.3370 C   0  0  0  0  0  0  0  0  0  0  0  0
   -1.4580    1.1639   -0.9288 C   0  0  0  0  0  0  0  0  0  0  0  0
   -1.9129    0.9102    0.5593 C   0  0  2  0  0  0  0  0  0  0  0  0
   -2.8855    1.9296    1.1769 C   0  0  0  0  0  0  0  0  0  0  0  0
   -4.2107    1.3278    1.6378 C   0  0  0  0  0  0  0  0  0  0  0  0
   -4.0253    0.2531    2.6725 C   0  0  0  0  0  0  0  0  0  0  0  0
   -4.6235    0.2501    3.7447 O   0  0  0  0  0  0  0  0  0  0  0  0
   -3.1518   -0.7477    2.3670 N   0  0  0  0  0  0  0  0  0  0  0  0
   -2.5787   -1.1222    1.0163 C   0  0  0  0  0  0  0  0  0  0  0  0
   -0.6637   -1.0339    0.1515 C   0  0  0  0  0  0  0  0  0  0  0  0
    0.9406   -1.6463    0.4380 C   0  0  0  0  0  0  0  0  0  0  0  0
    1.4044   -3.1209    0.4086 C   0  0  0  0  0  0  0  0  0  0  0  0
    1.6380   -3.6646   -0.9955 C   0  0  0  0  0  0  0  0  0  0  0  0
    2.8938   -3.0845   -1.6123 C   0  0  0  0  0  0  0  0  0  0  0  0
    4.0672   -3.6020   -0.9204 N   0  0  0  0  0  0  0  0  0  0  0  0
    5.2264   -4.0428   -1.4989 C   0  0  0  0  0  0  0  0  0  0  0  0
    6.0371   -4.7261   -0.9011 O   0  0  0  0  0  0  0  0  0  0  0  0
    5.4383   -3.6359   -2.8928 C   0  0  0  0  0  0  0  0  0  0  0  0
    5.5979   -4.6079   -3.8765 C   0  0  0  0  0  0  0  0  0  0  0  0
    5.6449   -4.2054   -5.2062 C   0  0  0  0  0  0  0  0  0  0  0  0
    5.4772   -2.8493   -5.5368 C   0  0  0  0  0  0  0  0  0  0  0  0
    5.5680   -2.3885   -6.9361 C   0  0  0  0  0  0  0  0  0  0  0  0
    6.6897   -1.4678   -7.3218 C   0  0  0  0  0  0  0  0  0  0  0  0
    6.9206   -0.8808   -8.4663 N   0  0  0  0  0  0  0  0  0  0  0  0
    8.0456   -0.0941   -8.2608 C   0  0  0  0  0  0  0  0  0  0  0  0
    8.7262    0.6450   -9.1654 C   0  0  0  0  0  0  0  0  0  0  0  0
    9.9226    1.4128   -8.6854 C   0  0  0  0  0  0  0  0  0  0  0  0
   11.0994    0.7685   -8.2732 C   0  0  0  0  0  0  0  0  0  0  0  0
   11.1622   -0.5715   -8.2454 F   0  0  0  0  0  0  0  0  0  0  0  0
   12.2062    1.4991   -7.8491 C   0  0  0  0  0  0  0  0  0  0  0  0
   13.3019    0.8609   -7.4149 F   0  0  0  0  0  0  0  0  0  0  0  0
   12.1724    2.8851   -7.8645 C   0  0  0  0  0  0  0  0  0  0  0  0
   13.2436    3.5873   -7.4704 F   0  0  0  0  0  0  0  0  0  0  0  0
   11.0259    3.5432   -8.2829 C   0  0  0  0  0  0  0  0  0  0  0  0
   10.9952    4.8828   -8.3095 F   0  0  0  0  0  0  0  0  0  0  0  0
    9.9061    2.8154   -8.6758 C   0  0  0  0  0  0  0  0  0  0  0  0
    8.8058    3.4818   -9.0569 F   0  0  0  0  0  0  0  0  0  0  0  0
    8.3661    0.7279  -10.5538 C   0  0  0  0  0  0  0  0  0  0  0  0
    9.0251    1.3817  -11.5776 C   0  0  0  0  0  0  0  0  0  0  0  0
    8.2679    1.2331  -12.7430 C   0  0  0  0  0  0  0  0  0  0  0  0
    7.1713    0.4333  -12.4595 C   0  0  0  0  0  0  0  0  0  0  0  0
    7.2418    0.1340  -11.1102 N   0  0  0  0  0  0  0  0  0  0  0  0
    6.1384   -0.0212  -13.3551 C   0  0  0  0  0  0  0  0  0  0  0  0
    6.2319    0.4074  -14.7901 C   0  0  0  0  0  0  0  0  0  0  0  0
    5.3280    1.3252  -15.3442 C   0  0  0  0  0  0  0  0  0  0  0  0
    4.3129    1.8023  -14.6078 F   0  0  0  0  0  0  0  0  0  0  0  0
    5.4401    1.7240  -16.6727 C   0  0  0  0  0  0  0  0  0  0  0  0
    4.5332    2.5597  -17.1971 F   0  0  0  0  0  0  0  0  0  0  0  0
    6.4796    1.2473  -17.4576 C   0  0  0  0  0  0  0  0  0  0  0  0
    6.5917    1.6411  -18.7334 F   0  0  0  0  0  0  0  0  0  0  0  0
    7.3985    0.3575  -16.9228 C   0  0  0  0  0  0  0  0  0  0  0  0
    8.4147   -0.0891  -17.6736 F   0  0  0  0  0  0  0  0  0  0  0  0
    7.2678   -0.0721  -15.6063 C   0  0  0  0  0  0  0  0  0  0  0  0
    8.1647   -0.9434  -15.1202 F   0  0  0  0  0  0  0  0  0  0  0  0
    5.0978   -0.8216  -13.0149 C   0  0  0  0  0  0  0  0  0  0  0  0
    4.7816   -1.3754  -11.7821 N   0  0  0  0  0  0  0  0  0  0  0  0
    3.6697   -2.0481  -11.9621 C   0  0  0  0  0  0  0  0  0  0  0  0
    2.8849   -2.8707  -10.9742 C   0  0  0  0  0  0  0  0  0  0  0  0
    1.6246   -3.5532  -11.3688 C   0  0  0  0  0  0  0  0  0  0  0  0
    1.6297   -4.6045  -12.2963 C   0  0  0  0  0  0  0  0  0  0  0  0
    2.7860   -5.0109  -12.8410 F   0  0  0  0  0  0  0  0  0  0  0  0
    0.4435   -5.2106  -12.7061 C   0  0  0  0  0  0  0  0  0  0  0  0
    0.4732   -6.1730  -13.6380 F   0  0  0  0  0  0  0  0  0  0  0  0
   -0.7678   -4.8046  -12.1675 C   0  0  0  0  0  0  0  0  0  0  0  0
   -1.9082   -5.3869  -12.5622 F   0  0  0  0  0  0  0  0  0  0  0  0
   -0.7959   -3.7877  -11.2258 C   0  0  0  0  0  0  0  0  0  0  0  0
   -1.9618   -3.4045  -10.6880 F   0  0  0  0  0  0  0  0  0  0  0  0
    0.3862   -3.1582  -10.8410 C   0  0  0  0  0  0  0  0  0  0  0  0
    0.3242   -2.1650   -9.9419 F   0  0  0  0  0  0  0  0  0  0  0  0
    3.3542   -2.9852   -9.7181 C   0  0  0  0  0  0  0  0  0  0  0  0
    2.7336   -3.7478   -8.6398 C   0  0  0  0  0  0  0  0  0  0  0  0
    3.4597   -3.5906   -7.5212 C   0  0  0  0  0  0  0  0  0  0  0  0
    4.6188   -2.7468   -7.8186 C   0  0  0  0  0  0  0  0  0  0  0  0
    4.4737   -2.4354   -9.1444 N   0  0  0  0  0  0  0  0  0  0  0  0
    3.1399   -1.9748  -13.3295 C   0  0  0  0  0  0  0  0  0  0  0  0
    4.0716   -1.2573  -13.9399 C   0  0  0  0  0  0  0  0  0  0  0  0
    8.4144   -0.2219   -6.8707 C   0  0  0  0  0  0  0  0  0  0  0  0
    7.6628   -1.1286   -6.2676 C   0  0  0  0  0  0  0  0  0  0  0  0
    5.2858   -1.8916   -4.5302 C   0  0  0  0  0  0  0  0  0  0  0  0
    5.3302   -2.2764   -3.2047 C   0  0  0  0  0  0  0  0  0  0  0  0
    2.0011    1.9791    1.9277 H   0  0  0  0  0  0  0  0  0  0  0  0
    0.7795    1.8290    0.6314 H   0  0  0  0  0  0  0  0  0  0  0  0
    0.8039    0.5306    3.2708 H   0  0  0  0  0  0  0  0  0  0  0  0
   -1.5328    0.2029    2.8681 H   0  0  0  0  0  0  0  0  0  0  0  0
    0.1201   -2.1460    2.0952 H   0  0  0  0  0  0  0  0  0  0  0  0
   -2.6015   -2.3087    3.0620 H   0  0  0  0  0  0  0  0  0  0  0  0
   -2.2304   -3.6554    0.6978 H   0  0  0  0  0  0  0  0  0  0  0  0
   -0.6079   -3.2799   -0.0375 H   0  0  0  0  0  0  0  0  0  0  0  0
   -3.2082   -2.3403   -0.6076 H   0  0  0  0  0  0  0  0  0  0  0  0
   -3.8125    1.3941   -1.8857 H   0  0  0  0  0  0  0  0  0  0  0  0
   -4.5717   -0.0649   -1.2431 H   0  0  0  0  0  0  0  0  0  0  0  0
   -2.8843    0.0691   -3.7062 H   0  0  0  0  0  0  0  0  0  0  0  0
   -4.6863   -0.0193   -3.6091 H   0  0  0  0  0  0  0  0  0  0  0  0
   -4.7525   -1.8494   -5.1601 H   0  0  0  0  0  0  0  0  0  0  0  0
   -3.8103   -3.2939   -4.8793 H   0  0  0  0  0  0  0  0  0  0  0  0
   -3.0123   -1.8002   -5.3096 H   0  0  0  0  0  0  0  0  0  0  0  0
   -5.0520   -2.0732   -1.6570 H   0  0  0  0  0  0  0  0  0  0  0  0
   -6.6666   -2.9909   -1.7512 H   0  0  0  0  0  0  0  0  0  0  0  0
   -6.5619   -3.8682   -4.5717 H   0  0  0  0  0  0  0  0  0  0  0  0
   -7.9222   -3.9941   -3.4822 H   0  0  0  0  0  0  0  0  0  0  0  0
   -6.4533   -4.8808   -3.1518 H   0  0  0  0  0  0  0  0  0  0  0  0
   -7.1708   -1.5401   -4.2512 H   0  0  0  0  0  0  0  0  0  0  0  0
   -6.2153   -0.6921   -3.0008 H   0  0  0  0  0  0  0  0  0  0  0  0
   -8.8222   -1.9111   -2.3186 H   0  0  0  0  0  0  0  0  0  0  0  0
   -8.7269   -0.3160   -3.0721 H   0  0  0  0  0  0  0  0  0  0  0  0
   -7.6795   -1.0499   -0.3576 H   0  0  0  0  0  0  0  0  0  0  0  0
   -7.4937    0.5911    1.2017 H   0  0  0  0  0  0  0  0  0  0  0  0
   -8.5366    1.9600    0.8995 H   0  0  0  0  0  0  0  0  0  0  0  0
   -6.8307    2.0643    0.5361 H   0  0  0  0  0  0  0  0  0  0  0  0
   -8.4064    1.5189   -2.8163 H   0  0  0  0  0  0  0  0  0  0  0  0
   -7.3917    2.6344   -1.9336 H   0  0  0  0  0  0  0  0  0  0  0  0
   -9.0976    2.5301   -1.5702 H   0  0  0  0  0  0  0  0  0  0  0  0
   -4.4953   -4.8392   -2.8179 H   0  0  0  0  0  0  0  0  0  0  0  0
   -4.1600   -4.3543   -1.1862 H   0  0  0  0  0  0  0  0  0  0  0  0
   -2.3742   -4.2913   -3.5534 H   0  0  0  0  0  0  0  0  0  0  0  0
   -1.9217   -4.4018   -1.9059 H   0  0  0  0  0  0  0  0  0  0  0  0
   -1.0149   -0.8757   -3.2888 H   0  0  0  0  0  0  0  0  0  0  0  0
   -1.1930   -2.2452   -4.3592 H   0  0  0  0  0  0  0  0  0  0  0  0
   -0.2434   -2.3944   -2.9001 H   0  0  0  0  0  0  0  0  0  0  0  0
   -1.7509    2.0886   -1.3806 H   0  0  0  0  0  0  0  0  0  0  0  0
   -0.4620    1.2108   -1.3170 H   0  0  0  0  0  0  0  0  0  0  0  0
   -3.0945    2.6809    0.4443 H   0  0  0  0  0  0  0  0  0  0  0  0
   -2.4063    2.3238    2.0486 H   0  0  0  0  0  0  0  0  0  0  0  0
   -4.7093    0.9059    0.7903 H   0  0  0  0  0  0  0  0  0  0  0  0
   -4.7869    2.1120    2.0828 H   0  0  0  0  0  0  0  0  0  0  0  0
   -2.8539   -1.3005    3.1252 H   0  0  0  0  0  0  0  0  0  0  0  0
   -3.1743   -0.5490    0.3369 H   0  0  0  0  0  0  0  0  0  0  0  0
   -2.5475   -2.1735    1.2128 H   0  0  0  0  0  0  0  0  0  0  0  0
   -0.4893    0.0214    0.1213 H   0  0  0  0  0  0  0  0  0  0  0  0
   -0.8892   -1.8020   -0.5584 H   0  0  0  0  0  0  0  0  0  0  0  0
    1.1945   -1.2995    1.4179 H   0  0  0  0  0  0  0  0  0  0  0  0
    1.4119   -1.3054   -0.4601 H   0  0  0  0  0  0  0  0  0  0  0  0
    0.6545   -3.7198    0.8818 H   0  0  0  0  0  0  0  0  0  0  0  0
    2.3440   -3.1621    0.9189 H   0  0  0  0  0  0  0  0  0  0  0  0
    0.7996   -3.4118   -1.6104 H   0  0  0  0  0  0  0  0  0  0  0  0
    1.7551   -4.7261   -0.9298 H   0  0  0  0  0  0  0  0  0  0  0  0
    2.8721   -2.0182   -1.5263 H   0  0  0  0  0  0  0  0  0  0  0  0
    2.9412   -3.3617   -2.6447 H   0  0  0  0  0  0  0  0  0  0  0  0
    4.0214   -3.6382    0.0624 H   0  0  0  0  0  0  0  0  0  0  0  0
    5.6795   -5.6052   -3.6242 H   0  0  0  0  0  0  0  0  0  0  0  0
    5.8029   -4.9022   -5.9509 H   0  0  0  0  0  0  0  0  0  0  0  0
    9.9193    1.8904  -11.4960 H   0  0  0  0  0  0  0  0  0  0  0  0
    8.4882    1.6492  -13.6613 H   0  0  0  0  0  0  0  0  0  0  0  0
    6.5915   -0.4178  -10.6184 H   0  0  0  0  0  0  0  0  0  0  0  0
    1.8760   -4.3157   -8.7233 H   0  0  0  0  0  0  0  0  0  0  0  0
    3.2366   -3.9989   -6.6000 H   0  0  0  0  0  0  0  0  0  0  0  0
    5.1113   -1.8712   -9.6388 H   0  0  0  0  0  0  0  0  0  0  0  0
    2.2705   -2.3765  -13.7140 H   0  0  0  0  0  0  0  0  0  0  0  0
    4.0668   -1.0365  -14.9480 H   0  0  0  0  0  0  0  0  0  0  0  0
    9.1623    0.3201   -6.4103 H   0  0  0  0  0  0  0  0  0  0  0  0
    7.7382   -1.5015   -5.3083 H   0  0  0  0  0  0  0  0  0  0  0  0
    5.1128   -0.9050   -4.7787 H   0  0  0  0  0  0  0  0  0  0  0  0
    5.2842   -1.5700   -2.4537 H   0  0  0  0  0  0  0  0  0  0  0  0
  1  2  2  0  0  0  0
  1105  1  0  0  0  0
  1106  1  0  0  0  0
  2  3  1  0  0  0  0
  2107  1  0  0  0  0
  3  4  1  0  0  0  0
  3 27  1  0  0  0  0
  3108  1  1  0  0  0
  4  6  1  0  0  0  0
  4  5  1  0  0  0  0
  4109  1  1  0  0  0
  5110  1  0  0  0  0
  6  7  1  0  0  0  0
  6111  1  0  0  0  0
  6112  1  0  0  0  0
  7  8  1  0  0  0  0
  7 24  1  0  0  0  0
  7113  1  1  0  0  0
  8  9  1  6  0  0  0
  8 26  1  0  0  0  0
  8 27  1  0  0  0  0
  9 10  1  0  0  0  0
  9114  1  0  0  0  0
  9115  1  0  0  0  0
 10 11  1  0  0  0  0
 10116  1  0  0  0  0
 10117  1  0  0  0  0
 11 13  1  0  0  0  0
 11 24  1  0  0  0  0
 11 12  1  6  0  0  0
 12118  1  0  0  0  0
 12119  1  0  0  0  0
 12120  1  0  0  0  0
 13 22  1  0  0  0  0
 13 14  1  0  0  0  0
 13121  1  1  0  0  0
 14 16  1  0  0  0  0
 14 15  1  0  0  0  0
 14122  1  1  0  0  0
 15123  1  0  0  0  0
 15124  1  0  0  0  0
 15125  1  0  0  0  0
 16 17  1  0  0  0  0
 16126  1  0  0  0  0
 16127  1  0  0  0  0
 17 18  1  0  0  0  0
 17128  1  0  0  0  0
 17129  1  0  0  0  0
 18 19  2  0  0  0  0
 18130  1  0  0  0  0
 19 20  1  0  0  0  0
 19 21  1  0  0  0  0
 20131  1  0  0  0  0
 20132  1  0  0  0  0
 20133  1  0  0  0  0
 21134  1  0  0  0  0
 21135  1  0  0  0  0
 21136  1  0  0  0  0
 22 23  1  0  0  0  0
 22137  1  0  0  0  0
 22138  1  0  0  0  0
 23 24  1  0  0  0  0
 23139  1  0  0  0  0
 23140  1  0  0  0  0
 24 25  1  6  0  0  0
 25141  1  0  0  0  0
 25142  1  0  0  0  0
 25143  1  0  0  0  0
 26 27  1  0  0  0  0
 26144  1  0  0  0  0
 26145  1  0  0  0  0
 27 28  1  1  0  0  0
 28 29  1  0  0  0  0
 28146  1  0  0  0  0
 28147  1  0  0  0  0
 29 30  1  0  0  0  0
 29148  1  0  0  0  0
 29149  1  0  0  0  0
 30 31  2  0  0  0  0
 30 32  1  0  0  0  0
 32 33  1  0  0  0  0
 32150  1  0  0  0  0
 33 34  1  0  0  0  0
 33151  1  0  0  0  0
 33152  1  0  0  0  0
 34 35  1  0  0  0  0
 34153  1  0  0  0  0
 34154  1  0  0  0  0
 35 36  1  0  0  0  0
 35155  1  0  0  0  0
 35156  1  0  0  0  0
 36 37  1  0  0  0  0
 36157  1  0  0  0  0
 36158  1  0  0  0  0
 37 38  1  0  0  0  0
 37159  1  0  0  0  0
 37160  1  0  0  0  0
 38 39  1  0  0  0  0
 38161  1  0  0  0  0
 38162  1  0  0  0  0
 39 40  1  0  0  0  0
 39163  1  0  0  0  0
 40 41  2  0  0  0  0
 40 42  1  0  0  0  0
 42 43  1  0  0  0  0
 42104  2  0  0  0  0
 43 44  2  0  0  0  0
 43164  1  0  0  0  0
 44 45  1  0  0  0  0
 44165  1  0  0  0  0
 45 46  1  0  0  0  0
 45103  2  0  0  0  0
 46 47  1  0  0  0  0
 46 97  2  0  0  0  0
 47 48  2  0  0  0  0
 47102  1  0  0  0  0
 48 49  1  0  0  0  0
 49 50  2  0  0  0  0
 49101  1  0  0  0  0
 50 51  1  0  0  0  0
 50 62  1  0  0  0  0
 51 52  1  0  0  0  0
 51 60  2  0  0  0  0
 52 53  1  0  0  0  0
 52 54  2  0  0  0  0
 54 55  1  0  0  0  0
 54 56  1  0  0  0  0
 56 57  1  0  0  0  0
 56 58  2  0  0  0  0
 58 59  1  0  0  0  0
 58 60  1  0  0  0  0
 60 61  1  0  0  0  0
 62 63  2  0  0  0  0
 62 66  1  0  0  0  0
 63 64  1  0  0  0  0
 63166  1  0  0  0  0
 64 65  2  0  0  0  0
 64167  1  0  0  0  0
 65 66  1  0  0  0  0
 65 67  1  0  0  0  0
 66168  1  0  0  0  0
 67 68  1  0  0  0  0
 67 79  2  0  0  0  0
 68 69  1  0  0  0  0
 68 77  2  0  0  0  0
 69 70  1  0  0  0  0
 69 71  2  0  0  0  0
 71 72  1  0  0  0  0
 71 73  1  0  0  0  0
 73 74  1  0  0  0  0
 73 75  2  0  0  0  0
 75 76  1  0  0  0  0
 75 77  1  0  0  0  0
 77 78  1  0  0  0  0
 79 80  1  0  0  0  0
 79100  1  0  0  0  0
 80 81  2  0  0  0  0
 81 82  1  0  0  0  0
 81 99  1  0  0  0  0
 82 83  1  0  0  0  0
 82 94  2  0  0  0  0
 83 84  1  0  0  0  0
 83 92  2  0  0  0  0
 84 85  1  0  0  0  0
 84 86  2  0  0  0  0
 86 87  1  0  0  0  0
 86 88  1  0  0  0  0
 88 89  1  0  0  0  0
 88 90  2  0  0  0  0
 90 91  1  0  0  0  0
 90 92  1  0  0  0  0
 92 93  1  0  0  0  0
 94 95  1  0  0  0  0
 94 98  1  0  0  0  0
 95 96  2  0  0  0  0
 95169  1  0  0  0  0
 96 97  1  0  0  0  0
 96170  1  0  0  0  0
 97 98  1  0  0  0  0
 98171  1  0  0  0  0
 99100  2  0  0  0  0
 99172  1  0  0  0  0
100173  1  0  0  0  0
101102  2  0  0  0  0
101174  1  0  0  0  0
102175  1  0  0  0  0
103104  1  0  0  0  0
103176  1  0  0  0  0
104177  1  0  0  0  0
M  END
$$$$
