1_1_3182
 OpenBabel01102313213D

134145  0  0  0  0  0  0  0  0999 V2000
    0.8938   -0.0225   -0.4976 N   0  3  0  0  0  0  0  0  0  0  0  0
    0.2903   -1.2674   -0.0547 C   0  0  0  0  0  0  0  0  0  0  0  0
    0.8767   -1.8893    1.1837 C   0  0  0  0  0  0  0  0  0  0  0  0
    0.9238   -3.2511    1.4938 C   0  0  0  0  0  0  0  0  0  0  0  0
    0.4402   -4.2696    0.5701 C   0  0  0  0  0  0  0  0  0  0  0  0
   -0.7623   -4.9416    0.8037 C   0  0  0  0  0  0  0  0  0  0  0  0
   -1.2085   -5.9078   -0.1025 C   0  0  0  0  0  0  0  0  0  0  0  0
   -0.4594   -6.2014   -1.2432 C   0  0  0  0  0  0  0  0  0  0  0  0
    0.7423   -5.5367   -1.4785 C   0  0  0  0  0  0  0  0  0  0  0  0
    1.1945   -4.5785   -0.5709 C   0  0  0  0  0  0  0  0  0  0  0  0
    1.4942   -3.4280    2.8045 C   0  0  0  0  0  0  0  0  0  0  0  0
    1.5983   -4.7125    3.5140 C   0  0  0  0  0  0  0  0  0  0  0  0
    1.7013   -5.7801    2.9088 O   0  0  0  0  0  0  0  0  0  0  0  0
    1.5008   -4.8094    4.8869 N   0  0  0  0  0  0  0  0  0  0  0  0
    1.4606   -3.7871    5.9054 C   0  0  0  0  0  0  0  0  0  0  0  0
    0.7129   -4.1625    7.1812 C   0  0  0  0  0  0  0  0  0  0  0  0
    1.2677   -5.3331    7.9976 C   0  0  0  0  0  0  0  0  0  0  0  0
    2.7627   -5.3156    8.3284 C   0  0  0  0  0  0  0  0  0  0  0  0
    3.3177   -4.0435    8.9718 C   0  0  0  0  0  0  0  0  0  0  0  0
    2.5848   -3.5398   10.2092 C   0  0  0  0  0  0  0  0  0  0  0  0
    2.5469   -4.5130   11.2847 N   0  0  0  0  0  0  0  0  0  0  0  0
    2.8594   -4.3696   12.6133 C   0  0  0  0  0  0  0  0  0  0  0  0
    2.8897   -5.3561   13.3424 O   0  0  0  0  0  0  0  0  0  0  0  0
    3.1805   -3.0374   13.1754 C   0  0  0  0  0  0  0  0  0  0  0  0
    4.2202   -2.9388   14.1050 C   0  0  0  0  0  0  0  0  0  0  0  0
    4.5427   -1.6993   14.6620 C   0  0  0  0  0  0  0  0  0  0  0  0
    3.8583   -0.5401   14.2628 C   0  0  0  0  0  0  0  0  0  0  0  0
    4.1922    0.7834   14.8506 C   0  0  0  0  0  0  0  0  0  0  0  0
    3.1748    1.5200   15.6805 C   0  0  0  0  0  0  0  0  0  0  0  0
    3.2661    2.6919   16.2590 N   0  0  0  0  0  0  0  0  0  0  0  0
    2.0331    2.9152   16.8590 C   0  0  0  0  0  0  0  0  0  0  0  0
    1.6473    3.9491   17.6452 C   0  0  0  0  0  0  0  0  0  0  0  0
    0.2416    3.9289   18.1781 C   0  0  0  0  0  0  0  0  0  0  0  0
   -0.1746    2.9823   19.1279 C   0  0  0  0  0  0  0  0  0  0  0  0
    0.6764    2.0388   19.5590 F   0  0  0  0  0  0  0  0  0  0  0  0
   -1.4830    2.9704   19.6052 C   0  0  0  0  0  0  0  0  0  0  0  0
   -1.8715    2.0198   20.4665 F   0  0  0  0  0  0  0  0  0  0  0  0
   -2.3886    3.9287   19.1772 C   0  0  0  0  0  0  0  0  0  0  0  0
   -3.6456    3.9200   19.6419 F   0  0  0  0  0  0  0  0  0  0  0  0
   -1.9930    4.8908   18.2606 C   0  0  0  0  0  0  0  0  0  0  0  0
   -2.8630    5.8269   17.8566 F   0  0  0  0  0  0  0  0  0  0  0  0
   -0.6954    4.8837   17.7545 C   0  0  0  0  0  0  0  0  0  0  0  0
   -0.3521    5.8156   16.8526 F   0  0  0  0  0  0  0  0  0  0  0  0
    2.4971    5.0566   17.9983 C   0  0  0  0  0  0  0  0  0  0  0  0
    2.2192    6.1296   18.8269 C   0  0  0  0  0  0  0  0  0  0  0  0
    3.3289    6.9816   18.8276 C   0  0  0  0  0  0  0  0  0  0  0  0
    4.3227    6.4083   18.0508 C   0  0  0  0  0  0  0  0  0  0  0  0
    3.7946    5.2332   17.5389 N   0  0  0  0  0  0  0  0  0  0  0  0
    5.6570    6.8910   17.7989 C   0  0  0  0  0  0  0  0  0  0  0  0
    6.0899    8.1576   18.4829 C   0  0  0  0  0  0  0  0  0  0  0  0
    6.3387    9.3393   17.7683 C   0  0  0  0  0  0  0  0  0  0  0  0
    6.2145    9.3596   16.4325 F   0  0  0  0  0  0  0  0  0  0  0  0
    6.7725   10.4918   18.4185 C   0  0  0  0  0  0  0  0  0  0  0  0
    7.0706   11.5877   17.7068 F   0  0  0  0  0  0  0  0  0  0  0  0
    6.9198   10.5005   19.7974 C   0  0  0  0  0  0  0  0  0  0  0  0
    7.3378   11.6105   20.4210 F   0  0  0  0  0  0  0  0  0  0  0  0
    6.6449    9.3550   20.5281 C   0  0  0  0  0  0  0  0  0  0  0  0
    6.7696    9.3660   21.8624 F   0  0  0  0  0  0  0  0  0  0  0  0
    6.2480    8.1903   19.8774 C   0  0  0  0  0  0  0  0  0  0  0  0
    6.0133    7.0922   20.6114 F   0  0  0  0  0  0  0  0  0  0  0  0
    6.5712    6.2690   17.0132 C   0  0  0  0  0  0  0  0  0  0  0  0
    6.4531    5.0805   16.3045 N   0  0  0  0  0  0  0  0  0  0  0  0
    7.5978    4.9128   15.6876 C   0  0  0  0  0  0  0  0  0  0  0  0
    8.0511    3.7759   14.8106 C   0  0  0  0  0  0  0  0  0  0  0  0
    9.4123    3.7734   14.2114 C   0  0  0  0  0  0  0  0  0  0  0  0
   10.5551    3.6607   15.0164 C   0  0  0  0  0  0  0  0  0  0  0  0
   10.4282    3.5568   16.3477 F   0  0  0  0  0  0  0  0  0  0  0  0
   11.8335    3.7046   14.4641 C   0  0  0  0  0  0  0  0  0  0  0  0
   12.9079    3.6516   15.2629 F   0  0  0  0  0  0  0  0  0  0  0  0
   11.9946    3.8245   13.0922 C   0  0  0  0  0  0  0  0  0  0  0  0
   13.2239    3.8658   12.5609 F   0  0  0  0  0  0  0  0  0  0  0  0
   10.8793    3.9113   12.2729 C   0  0  0  0  0  0  0  0  0  0  0  0
   11.0300    4.0112   10.9452 F   0  0  0  0  0  0  0  0  0  0  0  0
    9.6011    3.9005   12.8276 C   0  0  0  0  0  0  0  0  0  0  0  0
    8.5419    4.0051   12.0115 F   0  0  0  0  0  0  0  0  0  0  0  0
    7.2173    2.7403   14.5971 C   0  0  0  0  0  0  0  0  0  0  0  0
    7.5213    1.5579   13.7968 C   0  0  0  0  0  0  0  0  0  0  0  0
    6.4512    0.7470   13.7888 C   0  0  0  0  0  0  0  0  0  0  0  0
    5.3966    1.3377   14.6138 C   0  0  0  0  0  0  0  0  0  0  0  0
    5.9365    2.5242   15.0438 N   0  0  0  0  0  0  0  0  0  0  0  0
    8.5622    5.9986   15.9093 C   0  0  0  0  0  0  0  0  0  0  0  0
    7.9073    6.7694   16.7647 C   0  0  0  0  0  0  0  0  0  0  0  0
    1.1891    1.7907   16.5205 C   0  0  0  0  0  0  0  0  0  0  0  0
    1.8698    0.8652   15.8621 C   0  0  0  0  0  0  0  0  0  0  0  0
    2.8198   -0.6509   13.3262 C   0  0  0  0  0  0  0  0  0  0  0  0
    2.4446   -1.8995   12.8334 C   0  0  0  0  0  0  0  0  0  0  0  0
    1.9931   -2.1732    3.1341 C   0  0  0  0  0  0  0  0  0  0  0  0
    2.8750   -1.6719    4.1426 C   0  0  0  0  0  0  0  0  0  0  0  0
    2.9381   -0.3533    4.3971 C   0  0  0  0  0  0  0  0  0  0  0  0
    2.1730    0.5945    3.6174 C   0  0  0  0  0  0  0  0  0  0  0  0
    1.4726    0.1463    2.5638 C   0  0  0  0  0  0  0  0  0  0  0  0
    1.4244   -1.2246    2.2723 N   0  0  0  0  0  0  0  0  0  0  0  0
    0.4194    0.3048   -1.3392 H   0  0  0  0  0  0  0  0  0  0  0  0
    1.8811   -0.1771   -0.7021 H   0  0  0  0  0  0  0  0  0  0  0  0
    0.8047    0.6790    0.2375 H   0  0  0  0  0  0  0  0  0  0  0  0
    0.3835   -1.9762   -0.8508 H   0  0  0  0  0  0  0  0  0  0  0  0
   -0.7189   -1.0200    0.2008 H   0  0  0  0  0  0  0  0  0  0  0  0
   -1.3204   -4.7249    1.6443 H   0  0  0  0  0  0  0  0  0  0  0  0
   -2.0952   -6.4060    0.0725 H   0  0  0  0  0  0  0  0  0  0  0  0
   -0.7958   -6.9112   -1.9126 H   0  0  0  0  0  0  0  0  0  0  0  0
    1.2964   -5.7526   -2.3219 H   0  0  0  0  0  0  0  0  0  0  0  0
    2.0898   -4.0940   -0.7403 H   0  0  0  0  0  0  0  0  0  0  0  0
    1.4501   -5.7309    5.2296 H   0  0  0  0  0  0  0  0  0  0  0  0
    0.9871   -2.9234    5.4875 H   0  0  0  0  0  0  0  0  0  0  0  0
    2.4767   -3.6220    6.1973 H   0  0  0  0  0  0  0  0  0  0  0  0
   -0.2910   -4.4094    6.9053 H   0  0  0  0  0  0  0  0  0  0  0  0
    0.8106   -3.3095    7.8198 H   0  0  0  0  0  0  0  0  0  0  0  0
    1.0712   -6.2296    7.4476 H   0  0  0  0  0  0  0  0  0  0  0  0
    0.7768   -5.2624    8.9457 H   0  0  0  0  0  0  0  0  0  0  0  0
    3.2971   -5.4748    7.4152 H   0  0  0  0  0  0  0  0  0  0  0  0
    2.8925   -6.0792    9.0666 H   0  0  0  0  0  0  0  0  0  0  0  0
    3.2888   -3.2666    8.2366 H   0  0  0  0  0  0  0  0  0  0  0  0
    4.3018   -4.2979    9.3060 H   0  0  0  0  0  0  0  0  0  0  0  0
    1.5796   -3.2970    9.9342 H   0  0  0  0  0  0  0  0  0  0  0  0
    3.1190   -2.6860   10.5706 H   0  0  0  0  0  0  0  0  0  0  0  0
    2.2518   -5.4144   11.0209 H   0  0  0  0  0  0  0  0  0  0  0  0
    4.7490   -3.7814   14.3794 H   0  0  0  0  0  0  0  0  0  0  0  0
    5.2891   -1.6350   15.3718 H   0  0  0  0  0  0  0  0  0  0  0  0
    1.3439    6.2761   19.3537 H   0  0  0  0  0  0  0  0  0  0  0  0
    3.3959    7.8845   19.3230 H   0  0  0  0  0  0  0  0  0  0  0  0
    4.2700    4.6150   16.9380 H   0  0  0  0  0  0  0  0  0  0  0  0
    8.4151    1.3747   13.3146 H   0  0  0  0  0  0  0  0  0  0  0  0
    6.3832   -0.1494   13.2820 H   0  0  0  0  0  0  0  0  0  0  0  0
    5.4516    3.1601   15.6180 H   0  0  0  0  0  0  0  0  0  0  0  0
    9.5029    6.1271   15.5048 H   0  0  0  0  0  0  0  0  0  0  0  0
    8.2997    7.6193   17.1992 H   0  0  0  0  0  0  0  0  0  0  0  0
    0.1880    1.7190   16.7605 H   0  0  0  0  0  0  0  0  0  0  0  0
    1.5644   -0.0718   15.5559 H   0  0  0  0  0  0  0  0  0  0  0  0
    2.3307    0.1973   13.0001 H   0  0  0  0  0  0  0  0  0  0  0  0
    1.6225   -1.9839   12.2153 H   0  0  0  0  0  0  0  0  0  0  0  0
    3.4665   -2.3264    4.6781 H   0  0  0  0  0  0  0  0  0  0  0  0
    3.5422   -0.0120    5.1611 H   0  0  0  0  0  0  0  0  0  0  0  0
    2.1657    1.5960    3.8663 H   0  0  0  0  0  0  0  0  0  0  0  0
    0.9657    0.8156    1.9637 H   0  0  0  0  0  0  0  0  0  0  0  0
  1  2  1  0  0  0  0
  1 93  1  0  0  0  0
  1 94  1  0  0  0  0
  1 95  1  0  0  0  0
  2  3  1  0  0  0  0
  2 96  1  0  0  0  0
  2 97  1  0  0  0  0
  3  4  2  0  0  0  0
  3 92  1  0  0  0  0
  4  5  1  0  0  0  0
  4 11  1  0  0  0  0
  5  6  1  0  0  0  0
  5 10  2  0  0  0  0
  6  7  2  0  0  0  0
  6 98  1  0  0  0  0
  7  8  1  0  0  0  0
  7 99  1  0  0  0  0
  8  9  2  0  0  0  0
  8100  1  0  0  0  0
  9 10  1  0  0  0  0
  9101  1  0  0  0  0
 10102  1  0  0  0  0
 11 12  1  0  0  0  0
 11 87  2  0  0  0  0
 12 13  2  0  0  0  0
 12 14  1  0  0  0  0
 14 15  1  0  0  0  0
 14103  1  0  0  0  0
 15 16  1  0  0  0  0
 15104  1  0  0  0  0
 15105  1  0  0  0  0
 16 17  1  0  0  0  0
 16106  1  0  0  0  0
 16107  1  0  0  0  0
 17 18  1  0  0  0  0
 17108  1  0  0  0  0
 17109  1  0  0  0  0
 18 19  1  0  0  0  0
 18110  1  0  0  0  0
 18111  1  0  0  0  0
 19 20  1  0  0  0  0
 19112  1  0  0  0  0
 19113  1  0  0  0  0
 20 21  1  0  0  0  0
 20114  1  0  0  0  0
 20115  1  0  0  0  0
 21 22  1  0  0  0  0
 21116  1  0  0  0  0
 22 23  2  0  0  0  0
 22 24  1  0  0  0  0
 24 25  1  0  0  0  0
 24 86  2  0  0  0  0
 25 26  2  0  0  0  0
 25117  1  0  0  0  0
 26 27  1  0  0  0  0
 26118  1  0  0  0  0
 27 28  1  0  0  0  0
 27 85  2  0  0  0  0
 28 29  1  0  0  0  0
 28 79  2  0  0  0  0
 29 30  2  0  0  0  0
 29 84  1  0  0  0  0
 30 31  1  0  0  0  0
 31 32  2  0  0  0  0
 31 83  1  0  0  0  0
 32 33  1  0  0  0  0
 32 44  1  0  0  0  0
 33 34  1  0  0  0  0
 33 42  2  0  0  0  0
 34 35  1  0  0  0  0
 34 36  2  0  0  0  0
 36 37  1  0  0  0  0
 36 38  1  0  0  0  0
 38 39  1  0  0  0  0
 38 40  2  0  0  0  0
 40 41  1  0  0  0  0
 40 42  1  0  0  0  0
 42 43  1  0  0  0  0
 44 45  2  0  0  0  0
 44 48  1  0  0  0  0
 45 46  1  0  0  0  0
 45119  1  0  0  0  0
 46 47  2  0  0  0  0
 46120  1  0  0  0  0
 47 48  1  0  0  0  0
 47 49  1  0  0  0  0
 48121  1  0  0  0  0
 49 50  1  0  0  0  0
 49 61  2  0  0  0  0
 50 51  1  0  0  0  0
 50 59  2  0  0  0  0
 51 52  1  0  0  0  0
 51 53  2  0  0  0  0
 53 54  1  0  0  0  0
 53 55  1  0  0  0  0
 55 56  1  0  0  0  0
 55 57  2  0  0  0  0
 57 58  1  0  0  0  0
 57 59  1  0  0  0  0
 59 60  1  0  0  0  0
 61 62  1  0  0  0  0
 61 82  1  0  0  0  0
 62 63  2  0  0  0  0
 63 64  1  0  0  0  0
 63 81  1  0  0  0  0
 64 65  1  0  0  0  0
 64 76  2  0  0  0  0
 65 66  1  0  0  0  0
 65 74  2  0  0  0  0
 66 67  1  0  0  0  0
 66 68  2  0  0  0  0
 68 69  1  0  0  0  0
 68 70  1  0  0  0  0
 70 71  1  0  0  0  0
 70 72  2  0  0  0  0
 72 73  1  0  0  0  0
 72 74  1  0  0  0  0
 74 75  1  0  0  0  0
 76 77  1  0  0  0  0
 76 80  1  0  0  0  0
 77 78  2  0  0  0  0
 77122  1  0  0  0  0
 78 79  1  0  0  0  0
 78123  1  0  0  0  0
 79 80  1  0  0  0  0
 80124  1  0  0  0  0
 81 82  2  0  0  0  0
 81125  1  0  0  0  0
 82126  1  0  0  0  0
 83 84  2  0  0  0  0
 83127  1  0  0  0  0
 84128  1  0  0  0  0
 85 86  1  0  0  0  0
 85129  1  0  0  0  0
 86130  1  0  0  0  0
 87 88  1  0  0  0  0
 87 92  1  0  0  0  0
 88 89  2  0  0  0  0
 88131  1  0  0  0  0
 89 90  1  0  0  0  0
 89132  1  0  0  0  0
 90 91  2  0  0  0  0
 90133  1  0  0  0  0
 91 92  1  0  0  0  0
 91134  1  0  0  0  0
M  CHG  1   1   1
M  END
$$$$
