1_1_2340
 OpenBabel01102313203D

143154  0  0  0  0  0  0  0  0999 V2000
    0.8723   -0.0958   -0.4566 C   0  0  0  0  0  0  0  0  0  0  0  0
    0.4553    0.4872   -2.0665 S   0  0  0  0  0  0  0  0  0  0  0  0
    1.2760   -0.2450   -3.0236 O   0  0  0  0  0  0  0  0  0  0  0  0
   -0.9843    0.4918   -2.1577 O   0  0  0  0  0  0  0  0  0  0  0  0
    1.0155    2.1772   -2.1239 C   0  0  0  0  0  0  0  0  0  0  0  0
    2.3840    2.4697   -2.0418 C   0  0  0  0  0  0  0  0  0  0  0  0
    2.8256    3.7937   -2.1591 C   0  0  0  0  0  0  0  0  0  0  0  0
    1.8853    4.8092   -2.3604 C   0  0  0  0  0  0  0  0  0  0  0  0
    2.3000    6.1539   -2.4944 N   0  0  0  0  0  0  0  0  0  0  0  0
    2.0796    7.0481   -1.4958 N   0  0  0  0  0  0  0  0  0  0  0  0
    2.5989    8.2082   -1.9491 C   0  0  0  0  0  0  0  0  0  0  0  0
    2.5606    9.4967   -1.1697 C   0  0  0  0  0  0  0  0  0  0  0  0
    1.2964    9.8782   -0.8511 F   0  0  0  0  0  0  0  0  0  0  0  0
    3.2576    9.4155   -0.0046 F   0  0  0  0  0  0  0  0  0  0  0  0
    3.1091   10.5271   -1.8728 F   0  0  0  0  0  0  0  0  0  0  0  0
    3.1539    8.0413   -3.2407 C   0  0  0  0  0  0  0  0  0  0  0  0
    2.9256    6.7261   -3.5867 C   0  0  0  0  0  0  0  0  0  0  0  0
    3.1856    6.0528   -4.8499 C   0  0  0  0  0  0  0  0  0  0  0  0
    2.1442    5.4417   -5.5590 C   0  0  0  0  0  0  0  0  0  0  0  0
    2.3999    4.7662   -6.7492 C   0  0  0  0  0  0  0  0  0  0  0  0
    3.7009    4.7113   -7.2573 C   0  0  0  0  0  0  0  0  0  0  0  0
    3.9993    3.9209   -8.5072 C   0  0  0  0  0  0  0  0  0  0  0  0
    3.5899    2.4601   -8.4250 C   0  0  0  0  0  0  0  0  0  0  0  0
    2.6889    2.0071   -9.1332 O   0  0  0  0  0  0  0  0  0  0  0  0
    4.2521    1.6092   -7.5882 N   0  0  0  0  0  0  0  0  0  0  0  0
    5.2713    1.9026   -6.6007 C   0  0  0  0  0  0  0  0  0  0  0  0
    4.7562    1.6715   -5.1790 C   0  0  0  0  0  0  0  0  0  0  0  0
    4.5231    0.1944   -4.8352 C   0  0  0  0  0  0  0  0  0  0  0  0
    5.7113   -0.7452   -5.0975 C   0  0  0  0  0  0  0  0  0  0  0  0
    7.0455   -0.3524   -4.4452 C   0  0  0  0  0  0  0  0  0  0  0  0
    7.0356   -0.4455   -2.9279 C   0  0  0  0  0  0  0  0  0  0  0  0
    6.8978   -1.8243   -2.4517 N   0  0  0  0  0  0  0  0  0  0  0  0
    6.8078   -2.2875   -1.1532 C   0  0  0  0  0  0  0  0  0  0  0  0
    7.0863   -3.4470   -0.8730 O   0  0  0  0  0  0  0  0  0  0  0  0
    6.3395   -1.3652   -0.1039 C   0  0  0  0  0  0  0  0  0  0  0  0
    6.8429   -1.3946    1.2018 C   0  0  0  0  0  0  0  0  0  0  0  0
    6.3849   -0.4488    2.1205 C   0  0  0  0  0  0  0  0  0  0  0  0
    5.5025    0.5494    1.6849 C   0  0  0  0  0  0  0  0  0  0  0  0
    5.0793    1.6617    2.5236 C   0  0  0  0  0  0  0  0  0  0  0  0
    6.1872    2.5627    2.9168 C   0  0  0  0  0  0  0  0  0  0  0  0
    6.6438    2.7564    4.1076 N   0  0  0  0  0  0  0  0  0  0  0  0
    7.6340    3.7231    3.9755 C   0  0  0  0  0  0  0  0  0  0  0  0
    7.8642    4.6111    4.9829 C   0  0  0  0  0  0  0  0  0  0  0  0
    8.2281    6.0668    4.7704 C   0  0  0  0  0  0  0  0  0  0  0  0
    8.4729    6.8698    5.9036 C   0  0  0  0  0  0  0  0  0  0  0  0
    8.6422    6.3129    7.1124 F   0  0  0  0  0  0  0  0  0  0  0  0
    8.4487    8.2657    5.8444 C   0  0  0  0  0  0  0  0  0  0  0  0
    8.5465    8.9786    6.9741 F   0  0  0  0  0  0  0  0  0  0  0  0
    8.2516    8.9143    4.6410 C   0  0  0  0  0  0  0  0  0  0  0  0
    8.1654   10.2492    4.5900 F   0  0  0  0  0  0  0  0  0  0  0  0
    8.0973    8.1685    3.4944 C   0  0  0  0  0  0  0  0  0  0  0  0
    7.8946    8.7754    2.3160 F   0  0  0  0  0  0  0  0  0  0  0  0
    8.0647    6.7764    3.5589 C   0  0  0  0  0  0  0  0  0  0  0  0
    7.7618    6.1789    2.4027 F   0  0  0  0  0  0  0  0  0  0  0  0
    7.2877    4.1335    6.2215 C   0  0  0  0  0  0  0  0  0  0  0  0
    7.4124    2.9686    6.9588 C   0  0  0  0  0  0  0  0  0  0  0  0
    6.0849    2.6567    7.3817 C   0  0  0  0  0  0  0  0  0  0  0  0
    5.2539    3.6986    6.9767 C   0  0  0  0  0  0  0  0  0  0  0  0
    6.1210    4.7136    6.6602 N   0  0  0  0  0  0  0  0  0  0  0  0
    3.8255    3.8184    6.8358 C   0  0  0  0  0  0  0  0  0  0  0  0
    2.9759    2.7712    7.5025 C   0  0  0  0  0  0  0  0  0  0  0  0
    2.2409    1.7819    6.8227 C   0  0  0  0  0  0  0  0  0  0  0  0
    2.2266    1.7265    5.4850 F   0  0  0  0  0  0  0  0  0  0  0  0
    1.5504    0.7870    7.5164 C   0  0  0  0  0  0  0  0  0  0  0  0
    0.8471   -0.1377    6.8450 F   0  0  0  0  0  0  0  0  0  0  0  0
    1.6184    0.7299    8.8981 C   0  0  0  0  0  0  0  0  0  0  0  0
    0.9875   -0.2469    9.5647 F   0  0  0  0  0  0  0  0  0  0  0  0
    2.3644    1.6715    9.5874 C   0  0  0  0  0  0  0  0  0  0  0  0
    2.4768    1.5927   10.9201 F   0  0  0  0  0  0  0  0  0  0  0  0
    3.0226    2.6862    8.8995 C   0  0  0  0  0  0  0  0  0  0  0  0
    3.7510    3.5695    9.5999 F   0  0  0  0  0  0  0  0  0  0  0  0
    3.2199    4.7031    5.9919 C   0  0  0  0  0  0  0  0  0  0  0  0
    1.9090    4.5189    5.5894 N   0  0  0  0  0  0  0  0  0  0  0  0
    1.8580    5.0641    4.4068 C   0  0  0  0  0  0  0  0  0  0  0  0
    1.1579    4.4372    3.2604 C   0  0  0  0  0  0  0  0  0  0  0  0
    0.0602    5.1581    2.5666 C   0  0  0  0  0  0  0  0  0  0  0  0
   -0.7637    6.0672    3.2557 C   0  0  0  0  0  0  0  0  0  0  0  0
   -0.7699    6.0849    4.5958 F   0  0  0  0  0  0  0  0  0  0  0  0
   -1.5399    7.0212    2.5862 C   0  0  0  0  0  0  0  0  0  0  0  0
   -2.2612    7.9112    3.2814 F   0  0  0  0  0  0  0  0  0  0  0  0
   -1.5227    7.0889    1.2082 C   0  0  0  0  0  0  0  0  0  0  0  0
   -2.2096    8.0396    0.5588 F   0  0  0  0  0  0  0  0  0  0  0  0
   -0.7652    6.1785    0.5006 C   0  0  0  0  0  0  0  0  0  0  0  0
   -0.7619    6.2639   -0.8325 F   0  0  0  0  0  0  0  0  0  0  0  0
    0.0152    5.2244    1.1662 C   0  0  0  0  0  0  0  0  0  0  0  0
    0.7963    4.4155    0.4403 F   0  0  0  0  0  0  0  0  0  0  0  0
    1.8925    3.3446    2.9147 C   0  0  0  0  0  0  0  0  0  0  0  0
    1.5334    2.1802    2.1354 C   0  0  0  0  0  0  0  0  0  0  0  0
    2.6047    1.3542    2.0700 C   0  0  0  0  0  0  0  0  0  0  0  0
    3.7771    2.0051    2.6540 C   0  0  0  0  0  0  0  0  0  0  0  0
    3.2248    3.0915    3.2601 N   0  0  0  0  0  0  0  0  0  0  0  0
    2.9152    6.0136    4.0926 C   0  0  0  0  0  0  0  0  0  0  0  0
    3.7808    5.6776    5.0530 C   0  0  0  0  0  0  0  0  0  0  0  0
    7.9621    3.7667    2.5766 C   0  0  0  0  0  0  0  0  0  0  0  0
    6.9903    3.1993    1.8592 C   0  0  0  0  0  0  0  0  0  0  0  0
    5.0805    0.6041    0.3648 C   0  0  0  0  0  0  0  0  0  0  0  0
    5.3633   -0.4429   -0.4642 C   0  0  0  0  0  0  0  0  0  0  0  0
    4.7287    5.3880   -6.5837 C   0  0  0  0  0  0  0  0  0  0  0  0
    4.4767    6.0406   -5.3792 C   0  0  0  0  0  0  0  0  0  0  0  0
    0.5255    4.5086   -2.4891 C   0  0  0  0  0  0  0  0  0  0  0  0
    0.0847    3.1924   -2.3538 C   0  0  0  0  0  0  0  0  0  0  0  0
    0.5607   -1.1143   -0.3543 H   0  0  0  0  0  0  0  0  0  0  0  0
    0.3782    0.5040    0.2790 H   0  0  0  0  0  0  0  0  0  0  0  0
    1.9312   -0.0311   -0.3170 H   0  0  0  0  0  0  0  0  0  0  0  0
    3.0662    1.7094   -1.8949 H   0  0  0  0  0  0  0  0  0  0  0  0
    3.8313    4.0169   -2.0978 H   0  0  0  0  0  0  0  0  0  0  0  0
    3.6323    8.7584   -3.8082 H   0  0  0  0  0  0  0  0  0  0  0  0
    1.1793    5.4925   -5.1964 H   0  0  0  0  0  0  0  0  0  0  0  0
    1.6283    4.3057   -7.2567 H   0  0  0  0  0  0  0  0  0  0  0  0
    5.0525    3.9657   -8.6906 H   0  0  0  0  0  0  0  0  0  0  0  0
    3.4255    4.3600   -9.2964 H   0  0  0  0  0  0  0  0  0  0  0  0
    4.0015    0.6604   -7.6667 H   0  0  0  0  0  0  0  0  0  0  0  0
    5.5686    2.9256   -6.7010 H   0  0  0  0  0  0  0  0  0  0  0  0
    6.1003    1.2473   -6.7685 H   0  0  0  0  0  0  0  0  0  0  0  0
    3.8291    2.1939   -5.0674 H   0  0  0  0  0  0  0  0  0  0  0  0
    5.5123    2.0302   -4.5123 H   0  0  0  0  0  0  0  0  0  0  0  0
    3.6949   -0.1522   -5.4173 H   0  0  0  0  0  0  0  0  0  0  0  0
    4.3535    0.1633   -3.7792 H   0  0  0  0  0  0  0  0  0  0  0  0
    5.8657   -0.7883   -6.1554 H   0  0  0  0  0  0  0  0  0  0  0  0
    5.4401   -1.6798   -4.6526 H   0  0  0  0  0  0  0  0  0  0  0  0
    7.2716    0.6567   -4.7201 H   0  0  0  0  0  0  0  0  0  0  0  0
    7.7808   -1.0461   -4.7959 H   0  0  0  0  0  0  0  0  0  0  0  0
    6.2149    0.1304   -2.5540 H   0  0  0  0  0  0  0  0  0  0  0  0
    7.9729   -0.0708   -2.5729 H   0  0  0  0  0  0  0  0  0  0  0  0
    6.8648   -2.5148   -3.1526 H   0  0  0  0  0  0  0  0  0  0  0  0
    7.5401   -2.1027    1.4802 H   0  0  0  0  0  0  0  0  0  0  0  0
    6.6912   -0.4839    3.1054 H   0  0  0  0  0  0  0  0  0  0  0  0
    8.2763    2.4408    7.1591 H   0  0  0  0  0  0  0  0  0  0  0  0
    5.7932    1.8106    7.8956 H   0  0  0  0  0  0  0  0  0  0  0  0
    5.9411    5.6787    6.7336 H   0  0  0  0  0  0  0  0  0  0  0  0
    0.6133    2.0074    1.7011 H   0  0  0  0  0  0  0  0  0  0  0  0
    2.5952    0.4042    1.6669 H   0  0  0  0  0  0  0  0  0  0  0  0
    3.7245    3.6561    3.8932 H   0  0  0  0  0  0  0  0  0  0  0  0
    2.9774    6.7297    3.3521 H   0  0  0  0  0  0  0  0  0  0  0  0
    4.7362    6.0610    5.1253 H   0  0  0  0  0  0  0  0  0  0  0  0
    8.8238    4.1771    2.1842 H   0  0  0  0  0  0  0  0  0  0  0  0
    6.8416    3.2051    0.8380 H   0  0  0  0  0  0  0  0  0  0  0  0
    4.5606    1.4239    0.0146 H   0  0  0  0  0  0  0  0  0  0  0  0
    4.8542   -0.5496   -1.3555 H   0  0  0  0  0  0  0  0  0  0  0  0
    5.6798    5.4024   -6.9841 H   0  0  0  0  0  0  0  0  0  0  0  0
    5.2444    6.5148   -4.8785 H   0  0  0  0  0  0  0  0  0  0  0  0
   -0.1525    5.2617   -2.6844 H   0  0  0  0  0  0  0  0  0  0  0  0
   -0.9208    2.9706   -2.4230 H   0  0  0  0  0  0  0  0  0  0  0  0
  1  2  1  0  0  0  0
  1102  1  0  0  0  0
  1103  1  0  0  0  0
  1104  1  0  0  0  0
  2  3  2  0  0  0  0
  2  4  2  0  0  0  0
  2  5  1  0  0  0  0
  5  6  1  0  0  0  0
  5101  2  0  0  0  0
  6  7  2  0  0  0  0
  6105  1  0  0  0  0
  7  8  1  0  0  0  0
  7106  1  0  0  0  0
  8  9  1  0  0  0  0
  8100  2  0  0  0  0
  9 10  1  0  0  0  0
  9 17  1  0  0  0  0
 10 11  2  0  0  0  0
 11 12  1  0  0  0  0
 11 16  1  0  0  0  0
 12 13  1  0  0  0  0
 12 14  1  0  0  0  0
 12 15  1  0  0  0  0
 16 17  2  0  0  0  0
 16107  1  0  0  0  0
 17 18  1  0  0  0  0
 18 19  1  0  0  0  0
 18 99  2  0  0  0  0
 19 20  2  0  0  0  0
 19108  1  0  0  0  0
 20 21  1  0  0  0  0
 20109  1  0  0  0  0
 21 22  1  0  0  0  0
 21 98  2  0  0  0  0
 22 23  1  0  0  0  0
 22110  1  0  0  0  0
 22111  1  0  0  0  0
 23 24  2  0  0  0  0
 23 25  1  0  0  0  0
 25 26  1  0  0  0  0
 25112  1  0  0  0  0
 26 27  1  0  0  0  0
 26113  1  0  0  0  0
 26114  1  0  0  0  0
 27 28  1  0  0  0  0
 27115  1  0  0  0  0
 27116  1  0  0  0  0
 28 29  1  0  0  0  0
 28117  1  0  0  0  0
 28118  1  0  0  0  0
 29 30  1  0  0  0  0
 29119  1  0  0  0  0
 29120  1  0  0  0  0
 30 31  1  0  0  0  0
 30121  1  0  0  0  0
 30122  1  0  0  0  0
 31 32  1  0  0  0  0
 31123  1  0  0  0  0
 31124  1  0  0  0  0
 32 33  1  0  0  0  0
 32125  1  0  0  0  0
 33 34  2  0  0  0  0
 33 35  1  0  0  0  0
 35 36  1  0  0  0  0
 35 97  2  0  0  0  0
 36 37  2  0  0  0  0
 36126  1  0  0  0  0
 37 38  1  0  0  0  0
 37127  1  0  0  0  0
 38 39  1  0  0  0  0
 38 96  2  0  0  0  0
 39 40  1  0  0  0  0
 39 90  2  0  0  0  0
 40 41  2  0  0  0  0
 40 95  1  0  0  0  0
 41 42  1  0  0  0  0
 42 43  2  0  0  0  0
 42 94  1  0  0  0  0
 43 44  1  0  0  0  0
 43 55  1  0  0  0  0
 44 45  1  0  0  0  0
 44 53  2  0  0  0  0
 45 46  1  0  0  0  0
 45 47  2  0  0  0  0
 47 48  1  0  0  0  0
 47 49  1  0  0  0  0
 49 50  1  0  0  0  0
 49 51  2  0  0  0  0
 51 52  1  0  0  0  0
 51 53  1  0  0  0  0
 53 54  1  0  0  0  0
 55 56  2  0  0  0  0
 55 59  1  0  0  0  0
 56 57  1  0  0  0  0
 56128  1  0  0  0  0
 57 58  2  0  0  0  0
 57129  1  0  0  0  0
 58 59  1  0  0  0  0
 58 60  1  0  0  0  0
 59130  1  0  0  0  0
 60 61  1  0  0  0  0
 60 72  2  0  0  0  0
 61 62  1  0  0  0  0
 61 70  2  0  0  0  0
 62 63  1  0  0  0  0
 62 64  2  0  0  0  0
 64 65  1  0  0  0  0
 64 66  1  0  0  0  0
 66 67  1  0  0  0  0
 66 68  2  0  0  0  0
 68 69  1  0  0  0  0
 68 70  1  0  0  0  0
 70 71  1  0  0  0  0
 72 73  1  0  0  0  0
 72 93  1  0  0  0  0
 73 74  2  0  0  0  0
 74 75  1  0  0  0  0
 74 92  1  0  0  0  0
 75 76  1  0  0  0  0
 75 87  2  0  0  0  0
 76 77  1  0  0  0  0
 76 85  2  0  0  0  0
 77 78  1  0  0  0  0
 77 79  2  0  0  0  0
 79 80  1  0  0  0  0
 79 81  1  0  0  0  0
 81 82  1  0  0  0  0
 81 83  2  0  0  0  0
 83 84  1  0  0  0  0
 83 85  1  0  0  0  0
 85 86  1  0  0  0  0
 87 88  1  0  0  0  0
 87 91  1  0  0  0  0
 88 89  2  0  0  0  0
 88131  1  0  0  0  0
 89 90  1  0  0  0  0
 89132  1  0  0  0  0
 90 91  1  0  0  0  0
 91133  1  0  0  0  0
 92 93  2  0  0  0  0
 92134  1  0  0  0  0
 93135  1  0  0  0  0
 94 95  2  0  0  0  0
 94136  1  0  0  0  0
 95137  1  0  0  0  0
 96 97  1  0  0  0  0
 96138  1  0  0  0  0
 97139  1  0  0  0  0
 98 99  1  0  0  0  0
 98140  1  0  0  0  0
 99141  1  0  0  0  0
100101  1  0  0  0  0
100142  1  0  0  0  0
101143  1  0  0  0  0
M  END
$$$$
