1_1_2381
 OpenBabel01102313203D

167180  0  0  1  0  0  0  0  0999 V2000
   -8.6985   -8.5937   -4.9577 C   0  0  0  0  0  0  0  0  0  0  0  0
   -8.5765   -7.1715   -4.4893 C   0  0  0  0  0  0  0  0  0  0  0  0
   -8.7172   -6.1761   -5.4447 C   0  0  0  0  0  0  0  0  0  0  0  0
   -8.6750   -4.8525   -5.0479 C   0  0  0  0  0  0  0  0  0  0  0  0
   -8.5198   -4.4646   -3.6918 C   0  0  0  0  0  0  0  0  0  0  0  0
   -8.6979   -2.7239   -3.5580 S   0  0  0  0  0  0  0  0  0  0  0  0
   -7.5464   -2.1755   -4.2562 O   0  0  0  0  0  0  0  0  0  0  0  0
  -10.0476   -2.5463   -4.0790 O   0  0  0  0  0  0  0  0  0  0  0  0
   -8.7456   -1.7793   -2.0867 N   0  0  0  0  0  0  0  0  0  0  0  0
   -7.7672   -1.7544   -1.0917 C   0  0  0  0  0  0  0  0  0  0  0  0
   -7.3462   -0.4283   -0.9276 C   0  0  0  0  0  0  0  0  0  0  0  0
   -6.3514    0.1675   -0.0248 C   0  0  0  0  0  0  0  0  0  0  0  0
   -5.5422    1.0113   -0.4115 O   0  0  0  0  0  0  0  0  0  0  0  0
   -6.3967   -0.0688    1.4807 C   0  0  0  0  0  0  0  0  0  0  0  0
   -6.1267   -1.1825    1.9134 O   0  0  0  0  0  0  0  0  0  0  0  0
   -6.7121    0.9933    2.3164 N   0  0  0  0  0  0  0  0  0  0  0  0
   -6.9576    2.3896    1.9659 C   0  0  0  0  0  0  0  0  0  0  0  0
   -8.0991    3.1357    2.6917 C   0  0  0  0  0  0  0  0  0  0  0  0
   -7.9611    4.3098    3.0493 O   0  0  0  0  0  0  0  0  0  0  0  0
   -9.3515    2.6070    2.8088 N   0  0  0  0  0  0  0  0  0  0  0  0
   -9.7957    1.2165    2.6218 C   0  0  2  0  0  0  0  0  0  0  0  0
  -11.3141    1.1151    2.3391 C   0  0  0  0  0  0  0  0  0  0  0  0
  -12.1562    0.0003    2.9147 C   0  0  0  0  0  0  0  0  0  0  0  0
  -11.7908   -1.0844    3.6877 C   0  0  0  0  0  0  0  0  0  0  0  0
  -12.9161   -1.6813    4.1863 N   0  0  0  0  0  0  0  0  0  0  0  0
  -14.0299   -1.1224    3.6232 C   0  0  0  0  0  0  0  0  0  0  0  0
  -15.3771   -1.4447    3.8106 C   0  0  0  0  0  0  0  0  0  0  0  0
  -16.3131   -0.7805    3.0192 C   0  0  0  0  0  0  0  0  0  0  0  0
  -15.9101    0.1799    2.0944 C   0  0  0  0  0  0  0  0  0  0  0  0
  -14.5590    0.5392    1.9714 C   0  0  0  0  0  0  0  0  0  0  0  0
  -13.5889   -0.1220    2.7554 C   0  0  0  0  0  0  0  0  0  0  0  0
   -9.2226    0.3939    3.7874 C   0  0  0  0  0  0  0  0  0  0  0  0
   -8.6671   -0.6881    3.5633 O   0  0  0  0  0  0  0  0  0  0  0  0
   -9.2976    0.7551    5.0929 N   0  0  0  0  0  0  0  0  0  0  0  0
  -10.0513    1.7780    5.7890 C   0  0  0  0  0  0  0  0  0  0  0  0
  -11.3909    1.2536    6.3053 C   0  0  0  0  0  0  0  0  0  0  0  0
  -11.3107   -0.0538    7.1086 C   0  0  0  0  0  0  0  0  0  0  0  0
  -10.5094    0.0085    8.4158 C   0  0  0  0  0  0  0  0  0  0  0  0
  -10.8803    1.1494    9.3625 C   0  0  0  0  0  0  0  0  0  0  0  0
  -12.3210    1.1075    9.8547 C   0  0  0  0  0  0  0  0  0  0  0  0
  -12.4780    0.4712   11.1482 N   0  0  0  0  0  0  0  0  0  0  0  0
  -13.6038    0.3117   11.9396 C   0  0  0  0  0  0  0  0  0  0  0  0
  -13.4726   -0.0374   13.0933 O   0  0  0  0  0  0  0  0  0  0  0  0
  -14.9659    0.3880   11.3372 C   0  0  0  0  0  0  0  0  0  0  0  0
  -15.9122   -0.5358   11.8107 C   0  0  0  0  0  0  0  0  0  0  0  0
  -17.0146   -0.8631   11.0255 C   0  0  0  0  0  0  0  0  0  0  0  0
  -17.1275   -0.2805    9.7672 C   0  0  0  0  0  0  0  0  0  0  0  0
  -18.0062   -0.7796    8.7236 C   0  0  0  0  0  0  0  0  0  0  0  0
  -19.2723   -0.0899    8.4218 C   0  0  0  0  0  0  0  0  0  0  0  0
  -20.2687   -0.6524    7.8288 N   0  0  0  0  0  0  0  0  0  0  0  0
  -21.1735    0.3316    7.5143 C   0  0  0  0  0  0  0  0  0  0  0  0
  -22.1629    0.0665    6.6169 C   0  0  0  0  0  0  0  0  0  0  0  0
  -22.9836    1.1467    5.9697 C   0  0  0  0  0  0  0  0  0  0  0  0
  -23.3013    1.0958    4.5963 C   0  0  0  0  0  0  0  0  0  0  0  0
  -22.9630    0.0455    3.8382 F   0  0  0  0  0  0  0  0  0  0  0  0
  -23.9595    2.1401    3.9440 C   0  0  0  0  0  0  0  0  0  0  0  0
  -24.2290    2.0409    2.6345 F   0  0  0  0  0  0  0  0  0  0  0  0
  -24.3130    3.2808    4.6353 C   0  0  0  0  0  0  0  0  0  0  0  0
  -24.9000    4.3032    3.9990 F   0  0  0  0  0  0  0  0  0  0  0  0
  -24.0637    3.3498    5.9926 C   0  0  0  0  0  0  0  0  0  0  0  0
  -24.4038    4.4513    6.6770 F   0  0  0  0  0  0  0  0  0  0  0  0
  -23.4498    2.2822    6.6554 C   0  0  0  0  0  0  0  0  0  0  0  0
  -23.3357    2.3752    7.9883 F   0  0  0  0  0  0  0  0  0  0  0  0
  -22.1058   -1.3128    6.1541 C   0  0  0  0  0  0  0  0  0  0  0  0
  -21.5083   -1.8995    5.0505 C   0  0  0  0  0  0  0  0  0  0  0  0
  -21.3850   -3.2867    5.3036 C   0  0  0  0  0  0  0  0  0  0  0  0
  -21.9327   -3.5466    6.5475 C   0  0  0  0  0  0  0  0  0  0  0  0
  -22.3969   -2.3428    7.0408 N   0  0  0  0  0  0  0  0  0  0  0  0
  -22.1135   -4.7822    7.2908 C   0  0  0  0  0  0  0  0  0  0  0  0
  -23.5084   -5.3361    7.4406 C   0  0  0  0  0  0  0  0  0  0  0  0
  -23.9026   -6.1867    8.4852 C   0  0  0  0  0  0  0  0  0  0  0  0
  -23.0316   -6.5952    9.4174 F   0  0  0  0  0  0  0  0  0  0  0  0
  -25.2295   -6.5978    8.6409 C   0  0  0  0  0  0  0  0  0  0  0  0
  -25.5486   -7.4428    9.6312 F   0  0  0  0  0  0  0  0  0  0  0  0
  -26.2199   -6.1168    7.8046 C   0  0  0  0  0  0  0  0  0  0  0  0
  -27.4972   -6.4750    7.9891 F   0  0  0  0  0  0  0  0  0  0  0  0
  -25.8829   -5.2445    6.7918 C   0  0  0  0  0  0  0  0  0  0  0  0
  -26.8368   -4.7257    6.0056 F   0  0  0  0  0  0  0  0  0  0  0  0
  -24.5522   -4.8805    6.5971 C   0  0  0  0  0  0  0  0  0  0  0  0
  -24.3152   -4.0437    5.5760 F   0  0  0  0  0  0  0  0  0  0  0  0
  -20.9598   -5.3766    7.7154 C   0  0  0  0  0  0  0  0  0  0  0  0
  -19.7678   -4.7016    7.7443 N   0  0  0  0  0  0  0  0  0  0  0  0
  -18.8365   -5.4854    8.2124 C   0  0  0  0  0  0  0  0  0  0  0  0
  -17.4027   -5.0554    8.4137 C   0  0  0  0  0  0  0  0  0  0  0  0
  -16.6516   -5.1472    9.6947 C   0  0  0  0  0  0  0  0  0  0  0  0
  -15.2550   -5.3223    9.6305 C   0  0  0  0  0  0  0  0  0  0  0  0
  -14.6890   -5.7742    8.4993 F   0  0  0  0  0  0  0  0  0  0  0  0
  -14.4246   -4.9128   10.6709 C   0  0  0  0  0  0  0  0  0  0  0  0
  -13.0930   -4.9762   10.5264 F   0  0  0  0  0  0  0  0  0  0  0  0
  -14.9738   -4.3614   11.8154 C   0  0  0  0  0  0  0  0  0  0  0  0
  -14.1748   -3.8766   12.7760 F   0  0  0  0  0  0  0  0  0  0  0  0
  -16.3533   -4.2753   11.9436 C   0  0  0  0  0  0  0  0  0  0  0  0
  -16.8820   -3.7209   13.0442 F   0  0  0  0  0  0  0  0  0  0  0  0
  -17.1893   -4.6696   10.8958 C   0  0  0  0  0  0  0  0  0  0  0  0
  -18.5093   -4.4702   11.0162 F   0  0  0  0  0  0  0  0  0  0  0  0
  -17.0472   -3.9687    7.6674 C   0  0  0  0  0  0  0  0  0  0  0  0
  -17.7406   -3.5268    6.4702 C   0  0  0  0  0  0  0  0  0  0  0  0
  -18.1335   -2.2611    6.6861 C   0  0  0  0  0  0  0  0  0  0  0  0
  -17.5758   -1.8047    7.9553 C   0  0  0  0  0  0  0  0  0  0  0  0
  -16.6115   -2.7729    8.2809 N   0  0  0  0  0  0  0  0  0  0  0  0
  -19.3380   -6.8166    8.5408 C   0  0  0  0  0  0  0  0  0  0  0  0
  -20.6368   -6.7008    8.2115 C   0  0  0  0  0  0  0  0  0  0  0  0
  -20.6970    1.5209    8.1820 C   0  0  0  0  0  0  0  0  0  0  0  0
  -19.5289    1.2978    8.7947 C   0  0  0  0  0  0  0  0  0  0  0  0
  -16.2974    0.7775    9.3931 C   0  0  0  0  0  0  0  0  0  0  0  0
  -15.2594    1.1576   10.2170 C   0  0  0  0  0  0  0  0  0  0  0  0
   -8.0209    0.3267   -1.9321 C   0  0  0  0  0  0  0  0  0  0  0  0
   -7.8341    1.6045   -2.5010 C   0  0  0  0  0  0  0  0  0  0  0  0
   -8.7046    2.0492   -3.4991 C   0  0  0  0  0  0  0  0  0  0  0  0
   -9.8398    1.3173   -3.8166 C   0  0  0  0  0  0  0  0  0  0  0  0
  -10.0917    0.0903   -3.2046 C   0  0  0  0  0  0  0  0  0  0  0  0
   -9.0967   -0.4440   -2.3617 C   0  0  0  0  0  0  0  0  0  0  0  0
   -8.3614   -5.4411   -2.7247 C   0  0  0  0  0  0  0  0  0  0  0  0
   -8.3863   -6.8003   -3.1384 C   0  0  0  0  0  0  0  0  0  0  0  0
   -8.8359   -8.6092   -6.0187 H   0  0  0  0  0  0  0  0  0  0  0  0
   -9.5389   -9.0549   -4.4824 H   0  0  0  0  0  0  0  0  0  0  0  0
   -7.8076   -9.1299   -4.7056 H   0  0  0  0  0  0  0  0  0  0  0  0
   -8.8516   -6.4202   -6.4384 H   0  0  0  0  0  0  0  0  0  0  0  0
   -8.7598   -4.1170   -5.7668 H   0  0  0  0  0  0  0  0  0  0  0  0
   -7.4151   -2.5709   -0.5679 H   0  0  0  0  0  0  0  0  0  0  0  0
   -6.7794    0.7763    3.2743 H   0  0  0  0  0  0  0  0  0  0  0  0
   -7.1745    2.4202    0.9186 H   0  0  0  0  0  0  0  0  0  0  0  0
   -6.0694    2.9001    2.2748 H   0  0  0  0  0  0  0  0  0  0  0  0
  -10.0587    3.2468    3.0532 H   0  0  0  0  0  0  0  0  0  0  0  0
   -9.4055    0.7781    1.7271 H   0  0  0  0  0  0  0  0  0  0  0  0
  -11.4188    1.0532    1.2760 H   0  0  0  0  0  0  0  0  0  0  0  0
  -11.6982    1.9757    2.8458 H   0  0  0  0  0  0  0  0  0  0  0  0
  -10.8222   -1.3953    3.8616 H   0  0  0  0  0  0  0  0  0  0  0  0
  -12.9231   -2.4063    4.8523 H   0  0  0  0  0  0  0  0  0  0  0  0
  -15.6678   -2.1475    4.5082 H   0  0  0  0  0  0  0  0  0  0  0  0
  -17.3158   -1.0029    3.1197 H   0  0  0  0  0  0  0  0  0  0  0  0
  -16.6144    0.6333    1.4916 H   0  0  0  0  0  0  0  0  0  0  0  0
  -14.2766    1.2816    1.3125 H   0  0  0  0  0  0  0  0  0  0  0  0
   -8.7262    0.2146    5.6850 H   0  0  0  0  0  0  0  0  0  0  0  0
  -10.2346    2.5895    5.1162 H   0  0  0  0  0  0  0  0  0  0  0  0
   -9.4746    2.0958    6.6324 H   0  0  0  0  0  0  0  0  0  0  0  0
  -12.0290    1.0868    5.4627 H   0  0  0  0  0  0  0  0  0  0  0  0
  -11.7629    1.9964    6.9796 H   0  0  0  0  0  0  0  0  0  0  0  0
  -10.8595   -0.7954    6.4830 H   0  0  0  0  0  0  0  0  0  0  0  0
  -12.3165   -0.2776    7.3969 H   0  0  0  0  0  0  0  0  0  0  0  0
   -9.4749    0.1130    8.1634 H   0  0  0  0  0  0  0  0  0  0  0  0
  -10.7364   -0.8949    8.9423 H   0  0  0  0  0  0  0  0  0  0  0  0
  -10.7280    2.0753    8.8483 H   0  0  0  0  0  0  0  0  0  0  0  0
  -10.2568    1.0479   10.2261 H   0  0  0  0  0  0  0  0  0  0  0  0
  -12.9064    0.5680    9.1398 H   0  0  0  0  0  0  0  0  0  0  0  0
  -12.6429    2.1220    9.9647 H   0  0  0  0  0  0  0  0  0  0  0  0
  -11.6514    0.0914   11.5246 H   0  0  0  0  0  0  0  0  0  0  0  0
  -15.7907   -0.9710   12.7385 H   0  0  0  0  0  0  0  0  0  0  0  0
  -17.7308   -1.5221   11.3688 H   0  0  0  0  0  0  0  0  0  0  0  0
  -21.2059   -1.4105    4.1935 H   0  0  0  0  0  0  0  0  0  0  0  0
  -20.9607   -3.9828    4.6708 H   0  0  0  0  0  0  0  0  0  0  0  0
  -22.8671   -2.2304    7.8984 H   0  0  0  0  0  0  0  0  0  0  0  0
  -17.9011   -4.0812    5.6147 H   0  0  0  0  0  0  0  0  0  0  0  0
  -18.7318   -1.7025    6.0576 H   0  0  0  0  0  0  0  0  0  0  0  0
  -15.8004   -2.6448    8.8239 H   0  0  0  0  0  0  0  0  0  0  0  0
  -18.8309   -7.6298    8.9236 H   0  0  0  0  0  0  0  0  0  0  0  0
  -21.3240   -7.4655    8.3014 H   0  0  0  0  0  0  0  0  0  0  0  0
  -21.1935    2.4256    8.1858 H   0  0  0  0  0  0  0  0  0  0  0  0
  -18.9617    1.9354    9.3750 H   0  0  0  0  0  0  0  0  0  0  0  0
  -16.4601    1.2735    8.5029 H   0  0  0  0  0  0  0  0  0  0  0  0
  -14.7070    2.0031   10.0049 H   0  0  0  0  0  0  0  0  0  0  0  0
   -7.0593    2.2067   -2.1817 H   0  0  0  0  0  0  0  0  0  0  0  0
   -8.5022    2.9268   -4.0030 H   0  0  0  0  0  0  0  0  0  0  0  0
  -10.5055    1.6855   -4.5140 H   0  0  0  0  0  0  0  0  0  0  0  0
  -10.9794   -0.4113   -3.3639 H   0  0  0  0  0  0  0  0  0  0  0  0
   -8.2291   -5.1899   -1.7325 H   0  0  0  0  0  0  0  0  0  0  0  0
   -8.2615   -7.5403   -2.4300 H   0  0  0  0  0  0  0  0  0  0  0  0
  1  2  1  0  0  0  0
  1115  1  0  0  0  0
  1116  1  0  0  0  0
  1117  1  0  0  0  0
  2  3  1  0  0  0  0
  2114  2  0  0  0  0
  3  4  2  0  0  0  0
  3118  1  0  0  0  0
  4  5  1  0  0  0  0
  4119  1  0  0  0  0
  5  6  1  0  0  0  0
  5113  2  0  0  0  0
  6  7  2  0  0  0  0
  6  8  2  0  0  0  0
  6  9  1  0  0  0  0
  9 10  1  0  0  0  0
  9112  1  0  0  0  0
 10 11  2  0  0  0  0
 10120  1  0  0  0  0
 11 12  1  0  0  0  0
 11107  1  0  0  0  0
 12 13  2  0  0  0  0
 12 14  1  0  0  0  0
 14 15  2  0  0  0  0
 14 16  1  0  0  0  0
 16 17  1  0  0  0  0
 16121  1  0  0  0  0
 17 18  1  0  0  0  0
 17122  1  0  0  0  0
 17123  1  0  0  0  0
 18 19  2  0  0  0  0
 18 20  1  0  0  0  0
 20124  1  0  0  0  0
 21 32  1  0  0  0  0
 21 22  1  0  0  0  0
 21 20  1  0  0  0  0
 21125  1  6  0  0  0
 22 23  1  0  0  0  0
 22126  1  0  0  0  0
 22127  1  0  0  0  0
 23 24  2  0  0  0  0
 23 31  1  0  0  0  0
 24 25  1  0  0  0  0
 24128  1  0  0  0  0
 25 26  1  0  0  0  0
 25129  1  0  0  0  0
 26 27  1  0  0  0  0
 26 31  2  0  0  0  0
 27 28  2  0  0  0  0
 27130  1  0  0  0  0
 28 29  1  0  0  0  0
 28131  1  0  0  0  0
 29 30  2  0  0  0  0
 29132  1  0  0  0  0
 30 31  1  0  0  0  0
 30133  1  0  0  0  0
 32 33  2  0  0  0  0
 32 34  1  0  0  0  0
 34 35  1  0  0  0  0
 34134  1  0  0  0  0
 35 36  1  0  0  0  0
 35135  1  0  0  0  0
 35136  1  0  0  0  0
 36 37  1  0  0  0  0
 36137  1  0  0  0  0
 36138  1  0  0  0  0
 37 38  1  0  0  0  0
 37139  1  0  0  0  0
 37140  1  0  0  0  0
 38 39  1  0  0  0  0
 38141  1  0  0  0  0
 38142  1  0  0  0  0
 39 40  1  0  0  0  0
 39143  1  0  0  0  0
 39144  1  0  0  0  0
 40 41  1  0  0  0  0
 40145  1  0  0  0  0
 40146  1  0  0  0  0
 41 42  1  0  0  0  0
 41147  1  0  0  0  0
 42 43  2  0  0  0  0
 42 44  1  0  0  0  0
 44 45  1  0  0  0  0
 44106  2  0  0  0  0
 45 46  2  0  0  0  0
 45148  1  0  0  0  0
 46 47  1  0  0  0  0
 46149  1  0  0  0  0
 47 48  1  0  0  0  0
 47105  2  0  0  0  0
 48 49  1  0  0  0  0
 48 99  2  0  0  0  0
 49 50  2  0  0  0  0
 49104  1  0  0  0  0
 50 51  1  0  0  0  0
 51 52  2  0  0  0  0
 51103  1  0  0  0  0
 52 53  1  0  0  0  0
 52 64  1  0  0  0  0
 53 54  1  0  0  0  0
 53 62  2  0  0  0  0
 54 55  1  0  0  0  0
 54 56  2  0  0  0  0
 56 57  1  0  0  0  0
 56 58  1  0  0  0  0
 58 59  1  0  0  0  0
 58 60  2  0  0  0  0
 60 61  1  0  0  0  0
 60 62  1  0  0  0  0
 62 63  1  0  0  0  0
 64 65  2  0  0  0  0
 64 68  1  0  0  0  0
 65 66  1  0  0  0  0
 65150  1  0  0  0  0
 66 67  2  0  0  0  0
 66151  1  0  0  0  0
 67 68  1  0  0  0  0
 67 69  1  0  0  0  0
 68152  1  0  0  0  0
 69 70  1  0  0  0  0
 69 81  2  0  0  0  0
 70 71  1  0  0  0  0
 70 79  2  0  0  0  0
 71 72  1  0  0  0  0
 71 73  2  0  0  0  0
 73 74  1  0  0  0  0
 73 75  1  0  0  0  0
 75 76  1  0  0  0  0
 75 77  2  0  0  0  0
 77 78  1  0  0  0  0
 77 79  1  0  0  0  0
 79 80  1  0  0  0  0
 81 82  1  0  0  0  0
 81102  1  0  0  0  0
 82 83  2  0  0  0  0
 83 84  1  0  0  0  0
 83101  1  0  0  0  0
 84 85  1  0  0  0  0
 84 96  2  0  0  0  0
 85 86  1  0  0  0  0
 85 94  2  0  0  0  0
 86 87  1  0  0  0  0
 86 88  2  0  0  0  0
 88 89  1  0  0  0  0
 88 90  1  0  0  0  0
 90 91  1  0  0  0  0
 90 92  2  0  0  0  0
 92 93  1  0  0  0  0
 92 94  1  0  0  0  0
 94 95  1  0  0  0  0
 96 97  1  0  0  0  0
 96100  1  0  0  0  0
 97 98  2  0  0  0  0
 97153  1  0  0  0  0
 98 99  1  0  0  0  0
 98154  1  0  0  0  0
 99100  1  0  0  0  0
100155  1  0  0  0  0
101102  2  0  0  0  0
101156  1  0  0  0  0
102157  1  0  0  0  0
103104  2  0  0  0  0
103158  1  0  0  0  0
104159  1  0  0  0  0
105106  1  0  0  0  0
105160  1  0  0  0  0
106161  1  0  0  0  0
107108  1  0  0  0  0
107112  2  0  0  0  0
108109  2  0  0  0  0
108162  1  0  0  0  0
109110  1  0  0  0  0
109163  1  0  0  0  0
110111  2  0  0  0  0
110164  1  0  0  0  0
111112  1  0  0  0  0
111165  1  0  0  0  0
113114  1  0  0  0  0
113166  1  0  0  0  0
114167  1  0  0  0  0
M  END
$$$$
