1_1_3058
 OpenBabel01102313213D

131141  0  0  0  0  0  0  0  0999 V2000
    1.0843    0.0289   -0.0137 O   0  0  0  0  0  0  0  0  0  0  0  0
    2.3121    0.0356   -0.0133 C   0  0  0  0  0  0  0  0  0  0  0  0
    3.0085    0.9386    0.7482 N   0  0  0  0  0  0  0  0  0  0  0  0
    4.4325    1.2280    0.7308 C   0  0  0  0  0  0  0  0  0  0  0  0
    4.7182    2.7074    0.5239 C   0  0  0  0  0  0  0  0  0  0  0  0
    4.2361    3.6092    1.6592 C   0  0  0  0  0  0  0  0  0  0  0  0
    4.7548    3.2354    3.0509 C   0  0  0  0  0  0  0  0  0  0  0  0
    6.2765    3.1065    3.1709 C   0  0  0  0  0  0  0  0  0  0  0  0
    7.0613    4.3304    2.7101 C   0  0  0  0  0  0  0  0  0  0  0  0
    6.7374    5.5086    3.4892 N   0  0  0  0  0  0  0  0  0  0  0  0
    7.5946    6.4106    4.0634 C   0  0  0  0  0  0  0  0  0  0  0  0
    7.1591    7.3122    4.7748 O   0  0  0  0  0  0  0  0  0  0  0  0
    9.0526    6.2449    3.9053 C   0  0  0  0  0  0  0  0  0  0  0  0
    9.8011    6.1021    5.0822 C   0  0  0  0  0  0  0  0  0  0  0  0
   11.1861    5.9094    5.0301 C   0  0  0  0  0  0  0  0  0  0  0  0
   12.0283    5.7556    6.2306 C   0  0  0  0  0  0  0  0  0  0  0  0
   11.6013    5.8147    7.5030 C   0  0  0  0  0  0  0  0  0  0  0  0
   12.4988    5.6860    8.6587 C   0  0  0  0  0  0  0  0  0  0  0  0
   13.6975    6.4090    8.7396 C   0  0  0  0  0  0  0  0  0  0  0  0
   14.4974    6.2982    9.8750 C   0  0  0  0  0  0  0  0  0  0  0  0
   15.6669    6.9919    9.9870 O   0  0  0  0  0  0  0  0  0  0  0  0
   14.1221    5.4832   10.9353 C   0  0  0  0  0  0  0  0  0  0  0  0
   12.9273    4.7790   10.8589 C   0  0  0  0  0  0  0  0  0  0  0  0
   12.5803    3.9964   11.9214 O   0  0  0  0  0  0  0  0  0  0  0  0
   12.1097    4.8764    9.7346 C   0  0  0  0  0  0  0  0  0  0  0  0
   11.8025    5.8677    3.7688 C   0  0  0  0  0  0  0  0  0  0  0  0
   11.0640    6.0391    2.5918 C   0  0  0  0  0  0  0  0  0  0  0  0
    9.6887    6.2401    2.6618 C   0  0  0  0  0  0  0  0  0  0  0  0
    8.9728    6.4205    1.5122 O   0  0  0  0  0  0  0  0  0  0  0  0
    3.0569   -0.9303   -0.8459 C   0  0  0  0  0  0  0  0  0  0  0  0
    4.1447   -1.6266   -0.3112 C   0  0  0  0  0  0  0  0  0  0  0  0
    4.8926   -2.4684   -1.1229 C   0  0  0  0  0  0  0  0  0  0  0  0
    4.4772   -2.7318   -2.4378 C   0  0  0  0  0  0  0  0  0  0  0  0
    5.1408   -3.8183   -3.1974 C   0  0  0  0  0  0  0  0  0  0  0  0
    5.9151   -3.5433   -4.4512 C   0  0  0  0  0  0  0  0  0  0  0  0
    6.5191   -4.3925   -5.2437 N   0  0  0  0  0  0  0  0  0  0  0  0
    7.0619   -3.6354   -6.2724 C   0  0  0  0  0  0  0  0  0  0  0  0
    7.7873   -4.0651   -7.3322 C   0  0  0  0  0  0  0  0  0  0  0  0
    8.2375   -3.0566   -8.3487 C   0  0  0  0  0  0  0  0  0  0  0  0
    9.2750   -2.1518   -8.0849 C   0  0  0  0  0  0  0  0  0  0  0  0
    9.8202   -2.0866   -6.8610 F   0  0  0  0  0  0  0  0  0  0  0  0
    9.7555   -1.3039   -9.0811 C   0  0  0  0  0  0  0  0  0  0  0  0
   10.7373   -0.4349   -8.8029 F   0  0  0  0  0  0  0  0  0  0  0  0
    9.2260   -1.3612  -10.3622 C   0  0  0  0  0  0  0  0  0  0  0  0
    9.7084   -0.5634  -11.3251 F   0  0  0  0  0  0  0  0  0  0  0  0
    8.1986   -2.2475  -10.6450 C   0  0  0  0  0  0  0  0  0  0  0  0
    7.6965   -2.3170  -11.8858 F   0  0  0  0  0  0  0  0  0  0  0  0
    7.6992   -3.0782   -9.6457 C   0  0  0  0  0  0  0  0  0  0  0  0
    6.7101   -3.9311   -9.9525 F   0  0  0  0  0  0  0  0  0  0  0  0
    8.1454   -5.4423   -7.5640 C   0  0  0  0  0  0  0  0  0  0  0  0
    8.9469   -5.9658   -8.5642 C   0  0  0  0  0  0  0  0  0  0  0  0
    8.9393   -7.3585   -8.4471 C   0  0  0  0  0  0  0  0  0  0  0  0
    8.1852   -7.7011   -7.3369 C   0  0  0  0  0  0  0  0  0  0  0  0
    7.7108   -6.5147   -6.7989 N   0  0  0  0  0  0  0  0  0  0  0  0
    7.9065   -9.0141   -6.8152 C   0  0  0  0  0  0  0  0  0  0  0  0
    8.4180  -10.1983   -7.5814 C   0  0  0  0  0  0  0  0  0  0  0  0
    7.5469  -11.0518   -8.2749 C   0  0  0  0  0  0  0  0  0  0  0  0
    6.2212  -10.8519   -8.2214 F   0  0  0  0  0  0  0  0  0  0  0  0
    8.0333  -12.1415   -8.9909 C   0  0  0  0  0  0  0  0  0  0  0  0
    7.1792  -12.9731   -9.6030 F   0  0  0  0  0  0  0  0  0  0  0  0
    9.3985  -12.3759   -9.0592 C   0  0  0  0  0  0  0  0  0  0  0  0
    9.8658  -13.4193   -9.7580 F   0  0  0  0  0  0  0  0  0  0  0  0
   10.2788  -11.5337   -8.3968 C   0  0  0  0  0  0  0  0  0  0  0  0
   11.5991  -11.7501   -8.4739 F   0  0  0  0  0  0  0  0  0  0  0  0
    9.7936  -10.4635   -7.6514 C   0  0  0  0  0  0  0  0  0  0  0  0
   10.6686   -9.6751   -7.0091 F   0  0  0  0  0  0  0  0  0  0  0  0
    7.2250   -9.2684   -5.6722 C   0  0  0  0  0  0  0  0  0  0  0  0
    6.6443   -8.3742   -4.7859 N   0  0  0  0  0  0  0  0  0  0  0  0
    6.0658   -9.1062   -3.8656 C   0  0  0  0  0  0  0  0  0  0  0  0
    5.2913   -8.6675   -2.6561 C   0  0  0  0  0  0  0  0  0  0  0  0
    4.6872   -9.6599   -1.7287 C   0  0  0  0  0  0  0  0  0  0  0  0
    5.4862  -10.5098   -0.9532 C   0  0  0  0  0  0  0  0  0  0  0  0
    6.8227  -10.4293   -1.0324 F   0  0  0  0  0  0  0  0  0  0  0  0
    4.9167  -11.4819   -0.1334 C   0  0  0  0  0  0  0  0  0  0  0  0
    5.7049  -12.3254    0.5466 F   0  0  0  0  0  0  0  0  0  0  0  0
    3.5375  -11.5943   -0.0396 C   0  0  0  0  0  0  0  0  0  0  0  0
    2.9912  -12.5315    0.7466 F   0  0  0  0  0  0  0  0  0  0  0  0
    2.7256  -10.7425   -0.7715 C   0  0  0  0  0  0  0  0  0  0  0  0
    1.3928  -10.8325   -0.6694 F   0  0  0  0  0  0  0  0  0  0  0  0
    3.2940   -9.7976   -1.6213 C   0  0  0  0  0  0  0  0  0  0  0  0
    2.4821   -9.0048   -2.3364 F   0  0  0  0  0  0  0  0  0  0  0  0
    5.1067   -7.3511   -2.4511 C   0  0  0  0  0  0  0  0  0  0  0  0
    4.3552   -6.7762   -1.3438 C   0  0  0  0  0  0  0  0  0  0  0  0
    4.2599   -5.4531   -1.5288 C   0  0  0  0  0  0  0  0  0  0  0  0
    5.0118   -5.0763   -2.7303 C   0  0  0  0  0  0  0  0  0  0  0  0
    5.4992   -6.2681   -3.1999 N   0  0  0  0  0  0  0  0  0  0  0  0
    6.2071  -10.5532   -4.0709 C   0  0  0  0  0  0  0  0  0  0  0  0
    6.9603  -10.5964   -5.1597 C   0  0  0  0  0  0  0  0  0  0  0  0
    6.7085   -2.2557   -6.0127 C   0  0  0  0  0  0  0  0  0  0  0  0
    6.0252   -2.1406   -4.8798 C   0  0  0  0  0  0  0  0  0  0  0  0
    3.3522   -2.0691   -2.9541 C   0  0  0  0  0  0  0  0  0  0  0  0
    2.6533   -1.1535   -2.1644 C   0  0  0  0  0  0  0  0  0  0  0  0
    2.4739    1.4589    1.3907 H   0  0  0  0  0  0  0  0  0  0  0  0
    4.8863    0.6753   -0.0651 H   0  0  0  0  0  0  0  0  0  0  0  0
    4.8354    0.9465    1.6812 H   0  0  0  0  0  0  0  0  0  0  0  0
    4.2347    3.0184   -0.3786 H   0  0  0  0  0  0  0  0  0  0  0  0
    5.7826    2.8098    0.4842 H   0  0  0  0  0  0  0  0  0  0  0  0
    3.1671    3.5701    1.6824 H   0  0  0  0  0  0  0  0  0  0  0  0
    4.6224    4.5847    1.4494 H   0  0  0  0  0  0  0  0  0  0  0  0
    4.3212    2.2960    3.3237 H   0  0  0  0  0  0  0  0  0  0  0  0
    4.4748    4.0413    3.6967 H   0  0  0  0  0  0  0  0  0  0  0  0
    6.5872    2.2703    2.5801 H   0  0  0  0  0  0  0  0  0  0  0  0
    6.4872    2.9891    4.2134 H   0  0  0  0  0  0  0  0  0  0  0  0
    6.8310    4.5216    1.6828 H   0  0  0  0  0  0  0  0  0  0  0  0
    8.1029    4.1236    2.8416 H   0  0  0  0  0  0  0  0  0  0  0  0
    5.7779    5.6836    3.6233 H   0  0  0  0  0  0  0  0  0  0  0  0
    9.3253    6.1395    5.9972 H   0  0  0  0  0  0  0  0  0  0  0  0
   13.0353    5.5876    6.0800 H   0  0  0  0  0  0  0  0  0  0  0  0
   10.5941    5.9574    7.6769 H   0  0  0  0  0  0  0  0  0  0  0  0
   13.9863    7.0212    7.9606 H   0  0  0  0  0  0  0  0  0  0  0  0
   15.9489    7.5506    9.2896 H   0  0  0  0  0  0  0  0  0  0  0  0
   14.7238    5.4019   11.7698 H   0  0  0  0  0  0  0  0  0  0  0  0
   13.1435    3.9440   12.6684 H   0  0  0  0  0  0  0  0  0  0  0  0
   11.2206    4.3541    9.6943 H   0  0  0  0  0  0  0  0  0  0  0  0
   12.8202    5.7075    3.7084 H   0  0  0  0  0  0  0  0  0  0  0  0
   11.5379    6.0165    1.6753 H   0  0  0  0  0  0  0  0  0  0  0  0
    8.0466    6.5562    1.5535 H   0  0  0  0  0  0  0  0  0  0  0  0
    4.3912   -1.5151    0.6847 H   0  0  0  0  0  0  0  0  0  0  0  0
    5.7558   -2.9015   -0.7590 H   0  0  0  0  0  0  0  0  0  0  0  0
    9.4614   -5.4214   -9.2740 H   0  0  0  0  0  0  0  0  0  0  0  0
    9.4151   -8.0198   -9.0807 H   0  0  0  0  0  0  0  0  0  0  0  0
    7.1490   -6.4438   -5.9936 H   0  0  0  0  0  0  0  0  0  0  0  0
    3.9611   -7.3017   -0.5478 H   0  0  0  0  0  0  0  0  0  0  0  0
    3.7392   -4.8012   -0.9214 H   0  0  0  0  0  0  0  0  0  0  0  0
    6.0742   -6.3410   -3.9957 H   0  0  0  0  0  0  0  0  0  0  0  0
    5.8213  -11.3315   -3.5137 H   0  0  0  0  0  0  0  0  0  0  0  0
    7.3136  -11.4662   -5.5883 H   0  0  0  0  0  0  0  0  0  0  0  0
    6.9554   -1.4647   -6.6278 H   0  0  0  0  0  0  0  0  0  0  0  0
    5.6655   -1.2895   -4.4203 H   0  0  0  0  0  0  0  0  0  0  0  0
    3.0410   -2.2591   -3.9195 H   0  0  0  0  0  0  0  0  0  0  0  0
    1.8436   -0.6449   -2.5526 H   0  0  0  0  0  0  0  0  0  0  0  0
  1  2  2  0  0  0  0
  2  3  1  0  0  0  0
  2 30  1  0  0  0  0
  3  4  1  0  0  0  0
  3 93  1  0  0  0  0
  4  5  1  0  0  0  0
  4 94  1  0  0  0  0
  4 95  1  0  0  0  0
  5  6  1  0  0  0  0
  5 96  1  0  0  0  0
  5 97  1  0  0  0  0
  6  7  1  0  0  0  0
  6 98  1  0  0  0  0
  6 99  1  0  0  0  0
  7  8  1  0  0  0  0
  7100  1  0  0  0  0
  7101  1  0  0  0  0
  8  9  1  0  0  0  0
  8102  1  0  0  0  0
  8103  1  0  0  0  0
  9 10  1  0  0  0  0
  9104  1  0  0  0  0
  9105  1  0  0  0  0
 10 11  1  0  0  0  0
 10106  1  0  0  0  0
 11 12  2  0  0  0  0
 11 13  1  0  0  0  0
 13 14  1  0  0  0  0
 13 28  2  0  0  0  0
 14 15  2  0  0  0  0
 14107  1  0  0  0  0
 15 16  1  0  0  0  0
 15 26  1  0  0  0  0
 16 17  2  0  0  0  0
 16108  1  0  0  0  0
 17 18  1  0  0  0  0
 17109  1  0  0  0  0
 18 19  1  0  0  0  0
 18 25  2  0  0  0  0
 19 20  2  0  0  0  0
 19110  1  0  0  0  0
 20 21  1  0  0  0  0
 20 22  1  0  0  0  0
 21111  1  0  0  0  0
 22 23  2  0  0  0  0
 22112  1  0  0  0  0
 23 24  1  0  0  0  0
 23 25  1  0  0  0  0
 24113  1  0  0  0  0
 25114  1  0  0  0  0
 26 27  2  0  0  0  0
 26115  1  0  0  0  0
 27 28  1  0  0  0  0
 27116  1  0  0  0  0
 28 29  1  0  0  0  0
 29117  1  0  0  0  0
 30 31  1  0  0  0  0
 30 92  2  0  0  0  0
 31 32  2  0  0  0  0
 31118  1  0  0  0  0
 32 33  1  0  0  0  0
 32119  1  0  0  0  0
 33 34  1  0  0  0  0
 33 91  2  0  0  0  0
 34 35  1  0  0  0  0
 34 85  2  0  0  0  0
 35 36  2  0  0  0  0
 35 90  1  0  0  0  0
 36 37  1  0  0  0  0
 37 38  2  0  0  0  0
 37 89  1  0  0  0  0
 38 39  1  0  0  0  0
 38 50  1  0  0  0  0
 39 40  1  0  0  0  0
 39 48  2  0  0  0  0
 40 41  1  0  0  0  0
 40 42  2  0  0  0  0
 42 43  1  0  0  0  0
 42 44  1  0  0  0  0
 44 45  1  0  0  0  0
 44 46  2  0  0  0  0
 46 47  1  0  0  0  0
 46 48  1  0  0  0  0
 48 49  1  0  0  0  0
 50 51  2  0  0  0  0
 50 54  1  0  0  0  0
 51 52  1  0  0  0  0
 51120  1  0  0  0  0
 52 53  2  0  0  0  0
 52121  1  0  0  0  0
 53 54  1  0  0  0  0
 53 55  1  0  0  0  0
 54122  1  0  0  0  0
 55 56  1  0  0  0  0
 55 67  2  0  0  0  0
 56 57  1  0  0  0  0
 56 65  2  0  0  0  0
 57 58  1  0  0  0  0
 57 59  2  0  0  0  0
 59 60  1  0  0  0  0
 59 61  1  0  0  0  0
 61 62  1  0  0  0  0
 61 63  2  0  0  0  0
 63 64  1  0  0  0  0
 63 65  1  0  0  0  0
 65 66  1  0  0  0  0
 67 68  1  0  0  0  0
 67 88  1  0  0  0  0
 68 69  2  0  0  0  0
 69 70  1  0  0  0  0
 69 87  1  0  0  0  0
 70 71  1  0  0  0  0
 70 82  2  0  0  0  0
 71 72  1  0  0  0  0
 71 80  2  0  0  0  0
 72 73  1  0  0  0  0
 72 74  2  0  0  0  0
 74 75  1  0  0  0  0
 74 76  1  0  0  0  0
 76 77  1  0  0  0  0
 76 78  2  0  0  0  0
 78 79  1  0  0  0  0
 78 80  1  0  0  0  0
 80 81  1  0  0  0  0
 82 83  1  0  0  0  0
 82 86  1  0  0  0  0
 83 84  2  0  0  0  0
 83123  1  0  0  0  0
 84 85  1  0  0  0  0
 84124  1  0  0  0  0
 85 86  1  0  0  0  0
 86125  1  0  0  0  0
 87 88  2  0  0  0  0
 87126  1  0  0  0  0
 88127  1  0  0  0  0
 89 90  2  0  0  0  0
 89128  1  0  0  0  0
 90129  1  0  0  0  0
 91 92  1  0  0  0  0
 91130  1  0  0  0  0
 92131  1  0  0  0  0
M  END
$$$$
