1_1_925
 OpenBabel01102313193D

147159  0  0  1  0  0  0  0  0999 V2000
    1.1020    0.1032    0.2312 N   0  3  0  0  0  0  0  0  0  0  0  0
    0.6020    1.2829   -0.5119 C   0  0  1  0  0  0  0  0  0  0  0  0
    1.2384    1.5307   -1.9013 C   0  0  0  0  0  0  0  0  0  0  0  0
    1.0727    0.4958   -2.9883 C   0  0  0  0  0  0  0  0  0  0  0  0
    1.4573   -0.8365   -2.9808 C   0  0  0  0  0  0  0  0  0  0  0  0
    0.9421   -1.4778   -4.0983 N   0  0  0  0  0  0  0  0  0  0  0  0
    0.8449   -2.9064   -4.2625 C   0  0  0  0  0  0  0  0  0  0  0  0
    1.0965   -3.4119   -5.4605 N   0  0  0  0  0  0  0  0  0  0  0  0
    1.0005   -4.7347   -5.4902 C   0  0  0  0  0  0  0  0  0  0  0  0
    1.5374   -5.4774   -6.9331 Cl  0  0  0  0  0  0  0  0  0  0  0  0
    0.5639   -5.5562   -4.5405 N   0  0  0  0  0  0  0  0  0  0  0  0
    0.2540   -4.9559   -3.4063 C   0  0  0  0  0  0  0  0  0  0  0  0
   -0.2270   -5.6985   -2.3580 N   0  0  0  0  0  0  0  0  0  0  0  0
   -1.6297   -6.1171   -2.2533 C   0  0  0  0  0  0  0  0  0  0  0  0
   -1.9731   -6.1727   -0.7589 C   0  0  0  0  0  0  0  0  0  0  0  0
   -1.1525   -7.1557   -0.1063 O   0  0  0  0  0  0  0  0  0  0  0  0
    0.2498   -6.8695   -0.2911 C   0  0  0  0  0  0  0  0  0  0  0  0
    0.6417   -6.7227   -1.7792 C   0  0  0  0  0  0  0  0  0  0  0  0
    0.4437   -3.6420   -3.2070 N   0  0  0  0  0  0  0  0  0  0  0  0
    0.3871   -0.5105   -4.9401 C   0  0  0  0  0  0  0  0  0  0  0  0
   -0.2692   -0.6185   -6.1839 C   0  0  0  0  0  0  0  0  0  0  0  0
   -0.9302    0.5039   -6.6976 C   0  0  0  0  0  0  0  0  0  0  0  0
   -0.9105    1.7166   -6.0225 C   0  0  0  0  0  0  0  0  0  0  0  0
   -0.2288    1.8345   -4.8104 C   0  0  0  0  0  0  0  0  0  0  0  0
    0.4152    0.7094   -4.2452 C   0  0  0  0  0  0  0  0  0  0  0  0
   -0.9471    1.4277   -0.3929 C   0  0  0  0  0  0  0  0  0  0  0  0
   -1.4381    2.4174    0.1636 O   0  0  0  0  0  0  0  0  0  0  0  0
   -1.8252    0.4884   -0.8641 N   0  0  0  0  0  0  0  0  0  0  0  0
   -1.5479   -0.5844   -1.7752 C   0  0  0  0  0  0  0  0  0  0  0  0
   -2.2920   -1.8821   -1.5555 C   0  0  0  0  0  0  0  0  0  0  0  0
   -3.7076   -1.9440   -2.1178 C   0  0  0  0  0  0  0  0  0  0  0  0
   -3.9263   -1.5494   -3.5914 C   0  0  0  0  0  0  0  0  0  0  0  0
   -3.1010   -2.2581   -4.6699 C   0  0  0  0  0  0  0  0  0  0  0  0
   -2.9673   -3.7523   -4.5021 C   0  0  0  0  0  0  0  0  0  0  0  0
   -4.1977   -4.4990   -4.3483 N   0  0  0  0  0  0  0  0  0  0  0  0
   -4.9031   -5.3680   -5.1296 C   0  0  0  0  0  0  0  0  0  0  0  0
   -5.7934   -6.0193   -4.5747 O   0  0  0  0  0  0  0  0  0  0  0  0
   -4.7652   -5.4553   -6.5998 C   0  0  0  0  0  0  0  0  0  0  0  0
   -3.6516   -5.0467   -7.3260 C   0  0  0  0  0  0  0  0  0  0  0  0
   -3.7641   -4.8407   -8.6908 C   0  0  0  0  0  0  0  0  0  0  0  0
   -4.9678   -5.1312   -9.3453 C   0  0  0  0  0  0  0  0  0  0  0  0
   -5.0396   -4.9086  -10.7834 C   0  0  0  0  0  0  0  0  0  0  0  0
   -3.9669   -5.6278  -11.5205 C   0  0  0  0  0  0  0  0  0  0  0  0
   -2.9636   -5.0992  -12.1391 N   0  0  0  0  0  0  0  0  0  0  0  0
   -2.2186   -6.1623  -12.6384 C   0  0  0  0  0  0  0  0  0  0  0  0
   -1.4051   -5.9846  -13.7140 C   0  0  0  0  0  0  0  0  0  0  0  0
   -1.2770   -6.9843  -14.8384 C   0  0  0  0  0  0  0  0  0  0  0  0
   -0.3786   -6.7149  -15.8911 C   0  0  0  0  0  0  0  0  0  0  0  0
    0.5447   -5.7487  -15.7719 F   0  0  0  0  0  0  0  0  0  0  0  0
   -0.4760   -7.3587  -17.1276 C   0  0  0  0  0  0  0  0  0  0  0  0
    0.3122   -6.9748  -18.1407 F   0  0  0  0  0  0  0  0  0  0  0  0
   -1.4316   -8.3353  -17.3373 C   0  0  0  0  0  0  0  0  0  0  0  0
   -1.5712   -8.9063  -18.5404 F   0  0  0  0  0  0  0  0  0  0  0  0
   -2.2786   -8.6817  -16.3076 C   0  0  0  0  0  0  0  0  0  0  0  0
   -3.2289   -9.6080  -16.4977 F   0  0  0  0  0  0  0  0  0  0  0  0
   -2.2162   -8.0085  -15.0897 C   0  0  0  0  0  0  0  0  0  0  0  0
   -3.1841   -8.3228  -14.2224 F   0  0  0  0  0  0  0  0  0  0  0  0
   -1.0766   -4.5920  -13.8839 C   0  0  0  0  0  0  0  0  0  0  0  0
   -0.3849   -3.6573  -13.1389 C   0  0  0  0  0  0  0  0  0  0  0  0
   -1.1082   -2.4400  -13.3091 C   0  0  0  0  0  0  0  0  0  0  0  0
   -2.1474   -2.6780  -14.2084 C   0  0  0  0  0  0  0  0  0  0  0  0
   -1.8184   -3.8746  -14.7879 N   0  0  0  0  0  0  0  0  0  0  0  0
   -3.3640   -1.9630  -14.5071 C   0  0  0  0  0  0  0  0  0  0  0  0
   -3.5023   -0.5925  -13.9051 C   0  0  0  0  0  0  0  0  0  0  0  0
   -4.3150   -0.2964  -12.7959 C   0  0  0  0  0  0  0  0  0  0  0  0
   -5.1072   -1.2290  -12.2524 F   0  0  0  0  0  0  0  0  0  0  0  0
   -4.2680    0.9554  -12.1808 C   0  0  0  0  0  0  0  0  0  0  0  0
   -5.0411    1.2128  -11.1147 F   0  0  0  0  0  0  0  0  0  0  0  0
   -3.3856    1.9209  -12.6375 C   0  0  0  0  0  0  0  0  0  0  0  0
   -3.2972    3.1032  -12.0118 F   0  0  0  0  0  0  0  0  0  0  0  0
   -2.5686    1.6470  -13.7223 C   0  0  0  0  0  0  0  0  0  0  0  0
   -1.6778    2.5581  -14.1368 F   0  0  0  0  0  0  0  0  0  0  0  0
   -2.6372    0.4112  -14.3575 C   0  0  0  0  0  0  0  0  0  0  0  0
   -1.8052    0.1655  -15.3815 F   0  0  0  0  0  0  0  0  0  0  0  0
   -4.4512   -2.5020  -15.1296 C   0  0  0  0  0  0  0  0  0  0  0  0
   -5.6962   -1.9022  -15.0331 N   0  0  0  0  0  0  0  0  0  0  0  0
   -6.5410   -2.8852  -15.1759 C   0  0  0  0  0  0  0  0  0  0  0  0
   -7.7608   -3.0325  -14.3427 C   0  0  0  0  0  0  0  0  0  0  0  0
   -9.0914   -3.2854  -14.9622 C   0  0  0  0  0  0  0  0  0  0  0  0
   -9.4139   -2.7689  -16.2328 C   0  0  0  0  0  0  0  0  0  0  0  0
   -8.6309   -1.8404  -16.8019 F   0  0  0  0  0  0  0  0  0  0  0  0
  -10.4977   -3.2552  -16.9768 C   0  0  0  0  0  0  0  0  0  0  0  0
  -10.7318   -2.7829  -18.2099 F   0  0  0  0  0  0  0  0  0  0  0  0
  -11.2923   -4.2701  -16.4726 C   0  0  0  0  0  0  0  0  0  0  0  0
  -12.2861   -4.7856  -17.2103 F   0  0  0  0  0  0  0  0  0  0  0  0
  -11.0224   -4.7789  -15.2154 C   0  0  0  0  0  0  0  0  0  0  0  0
  -11.7590   -5.7906  -14.7343 F   0  0  0  0  0  0  0  0  0  0  0  0
   -9.9419   -4.2941  -14.4719 C   0  0  0  0  0  0  0  0  0  0  0  0
   -9.6809   -4.9009  -13.3058 F   0  0  0  0  0  0  0  0  0  0  0  0
   -7.3403   -3.3030  -13.0763 C   0  0  0  0  0  0  0  0  0  0  0  0
   -8.0176   -3.1402  -11.8031 C   0  0  0  0  0  0  0  0  0  0  0  0
   -7.1953   -3.5618  -10.8114 C   0  0  0  0  0  0  0  0  0  0  0  0
   -5.9947   -4.1700  -11.3889 C   0  0  0  0  0  0  0  0  0  0  0  0
   -6.1041   -3.8374  -12.7090 N   0  0  0  0  0  0  0  0  0  0  0  0
   -6.0160   -4.0906  -15.7982 C   0  0  0  0  0  0  0  0  0  0  0  0
   -4.7120   -3.8477  -15.6423 C   0  0  0  0  0  0  0  0  0  0  0  0
   -2.7337   -7.3511  -12.0121 C   0  0  0  0  0  0  0  0  0  0  0  0
   -3.8809   -7.0910  -11.3819 C   0  0  0  0  0  0  0  0  0  0  0  0
   -6.0024   -5.7566   -8.6663 C   0  0  0  0  0  0  0  0  0  0  0  0
   -5.9082   -5.8953   -7.2919 C   0  0  0  0  0  0  0  0  0  0  0  0
    2.1151    0.0421    0.1302 H   0  0  0  0  0  0  0  0  0  0  0  0
    0.6714   -0.7422   -0.1434 H   0  0  0  0  0  0  0  0  0  0  0  0
    0.8638    0.1973    1.2185 H   0  0  0  0  0  0  0  0  0  0  0  0
    0.9883    2.1432   -0.0063 H   0  0  0  0  0  0  0  0  0  0  0  0
    2.2899    1.6529   -1.7451 H   0  0  0  0  0  0  0  0  0  0  0  0
    0.7032    2.3780   -2.2762 H   0  0  0  0  0  0  0  0  0  0  0  0
    2.0385   -1.2832   -2.2544 H   0  0  0  0  0  0  0  0  0  0  0  0
   -1.7586   -7.0828   -2.6958 H   0  0  0  0  0  0  0  0  0  0  0  0
   -2.2712   -5.4315   -2.7664 H   0  0  0  0  0  0  0  0  0  0  0  0
   -3.0036   -6.4355   -0.6409 H   0  0  0  0  0  0  0  0  0  0  0  0
   -1.7925   -5.2140   -0.3193 H   0  0  0  0  0  0  0  0  0  0  0  0
    0.8205   -7.6679    0.1353 H   0  0  0  0  0  0  0  0  0  0  0  0
    0.4532   -5.9350    0.1887 H   0  0  0  0  0  0  0  0  0  0  0  0
    1.6657   -6.4231   -1.8605 H   0  0  0  0  0  0  0  0  0  0  0  0
    0.5267   -7.6531   -2.2951 H   0  0  0  0  0  0  0  0  0  0  0  0
   -0.2623   -1.5087   -6.7059 H   0  0  0  0  0  0  0  0  0  0  0  0
   -1.4398    0.4284   -7.5918 H   0  0  0  0  0  0  0  0  0  0  0  0
   -1.4015    2.5336   -6.4181 H   0  0  0  0  0  0  0  0  0  0  0  0
   -0.1946    2.7448   -4.3254 H   0  0  0  0  0  0  0  0  0  0  0  0
   -2.7525    0.5572   -0.5407 H   0  0  0  0  0  0  0  0  0  0  0  0
   -0.5013   -0.7981   -1.7131 H   0  0  0  0  0  0  0  0  0  0  0  0
   -1.8808   -0.2316   -2.7289 H   0  0  0  0  0  0  0  0  0  0  0  0
   -2.3511   -2.0511   -0.5006 H   0  0  0  0  0  0  0  0  0  0  0  0
   -1.7373   -2.6264   -2.0877 H   0  0  0  0  0  0  0  0  0  0  0  0
   -4.3137   -1.2936   -1.5224 H   0  0  0  0  0  0  0  0  0  0  0  0
   -3.9606   -2.9831   -2.0823 H   0  0  0  0  0  0  0  0  0  0  0  0
   -3.7185   -0.5029   -3.6720 H   0  0  0  0  0  0  0  0  0  0  0  0
   -4.9334   -1.8480   -3.7950 H   0  0  0  0  0  0  0  0  0  0  0  0
   -2.1180   -1.8356   -4.6647 H   0  0  0  0  0  0  0  0  0  0  0  0
   -3.6267   -2.1096   -5.5899 H   0  0  0  0  0  0  0  0  0  0  0  0
   -2.3691   -3.9293   -3.6327 H   0  0  0  0  0  0  0  0  0  0  0  0
   -2.5371   -4.1020   -5.4173 H   0  0  0  0  0  0  0  0  0  0  0  0
   -4.6262   -4.3437   -3.4757 H   0  0  0  0  0  0  0  0  0  0  0  0
   -2.7476   -4.8980   -6.8510 H   0  0  0  0  0  0  0  0  0  0  0  0
   -2.9614   -4.4733   -9.2253 H   0  0  0  0  0  0  0  0  0  0  0  0
    0.4698   -3.8071  -12.5803 H   0  0  0  0  0  0  0  0  0  0  0  0
   -0.8993   -1.5408  -12.8478 H   0  0  0  0  0  0  0  0  0  0  0  0
   -2.0699   -4.1681  -15.6934 H   0  0  0  0  0  0  0  0  0  0  0  0
   -8.9701   -2.7646  -11.6738 H   0  0  0  0  0  0  0  0  0  0  0  0
   -7.3865   -3.4683   -9.8016 H   0  0  0  0  0  0  0  0  0  0  0  0
   -5.3688   -3.9646  -13.3512 H   0  0  0  0  0  0  0  0  0  0  0  0
   -6.5036   -4.8913  -16.2297 H   0  0  0  0  0  0  0  0  0  0  0  0
   -3.9710   -4.5325  -15.8592 H   0  0  0  0  0  0  0  0  0  0  0  0
   -2.2788   -8.2768  -12.0457 H   0  0  0  0  0  0  0  0  0  0  0  0
   -4.5344   -7.7426  -10.9200 H   0  0  0  0  0  0  0  0  0  0  0  0
   -6.8267   -6.1118   -9.1755 H   0  0  0  0  0  0  0  0  0  0  0  0
   -6.6861   -6.3268   -6.7687 H   0  0  0  0  0  0  0  0  0  0  0  0
  1  2  1  0  0  0  0
  1101  1  0  0  0  0
  1102  1  0  0  0  0
  1103  1  0  0  0  0
  2  3  1  0  0  0  0
  2 26  1  0  0  0  0
  2104  1  1  0  0  0
  3  4  1  0  0  0  0
  3105  1  0  0  0  0
  3106  1  0  0  0  0
  4  5  2  0  0  0  0
  4 25  1  0  0  0  0
  5  6  1  0  0  0  0
  5107  1  0  0  0  0
  6  7  1  0  0  0  0
  6 20  1  0  0  0  0
  7  8  1  0  0  0  0
  7 19  2  0  0  0  0
  8  9  2  0  0  0  0
  9 10  1  0  0  0  0
  9 11  1  0  0  0  0
 11 12  2  0  0  0  0
 12 13  1  0  0  0  0
 12 19  1  0  0  0  0
 13 14  1  0  0  0  0
 13 18  1  0  0  0  0
 14 15  1  0  0  0  0
 14108  1  0  0  0  0
 14109  1  0  0  0  0
 15 16  1  0  0  0  0
 15110  1  0  0  0  0
 15111  1  0  0  0  0
 16 17  1  0  0  0  0
 17 18  1  0  0  0  0
 17112  1  0  0  0  0
 17113  1  0  0  0  0
 18114  1  0  0  0  0
 18115  1  0  0  0  0
 20 21  1  0  0  0  0
 20 25  2  0  0  0  0
 21 22  2  0  0  0  0
 21116  1  0  0  0  0
 22 23  1  0  0  0  0
 22117  1  0  0  0  0
 23 24  2  0  0  0  0
 23118  1  0  0  0  0
 24 25  1  0  0  0  0
 24119  1  0  0  0  0
 26 27  2  0  0  0  0
 26 28  1  0  0  0  0
 28 29  1  0  0  0  0
 28120  1  0  0  0  0
 29 30  1  0  0  0  0
 29121  1  0  0  0  0
 29122  1  0  0  0  0
 30 31  1  0  0  0  0
 30123  1  0  0  0  0
 30124  1  0  0  0  0
 31 32  1  0  0  0  0
 31125  1  0  0  0  0
 31126  1  0  0  0  0
 32 33  1  0  0  0  0
 32127  1  0  0  0  0
 32128  1  0  0  0  0
 33 34  1  0  0  0  0
 33129  1  0  0  0  0
 33130  1  0  0  0  0
 34 35  1  0  0  0  0
 34131  1  0  0  0  0
 34132  1  0  0  0  0
 35 36  1  0  0  0  0
 35133  1  0  0  0  0
 36 37  2  0  0  0  0
 36 38  1  0  0  0  0
 38 39  1  0  0  0  0
 38100  2  0  0  0  0
 39 40  2  0  0  0  0
 39134  1  0  0  0  0
 40 41  1  0  0  0  0
 40135  1  0  0  0  0
 41 42  1  0  0  0  0
 41 99  2  0  0  0  0
 42 43  1  0  0  0  0
 42 93  2  0  0  0  0
 43 44  2  0  0  0  0
 43 98  1  0  0  0  0
 44 45  1  0  0  0  0
 45 46  2  0  0  0  0
 45 97  1  0  0  0  0
 46 47  1  0  0  0  0
 46 58  1  0  0  0  0
 47 48  1  0  0  0  0
 47 56  2  0  0  0  0
 48 49  1  0  0  0  0
 48 50  2  0  0  0  0
 50 51  1  0  0  0  0
 50 52  1  0  0  0  0
 52 53  1  0  0  0  0
 52 54  2  0  0  0  0
 54 55  1  0  0  0  0
 54 56  1  0  0  0  0
 56 57  1  0  0  0  0
 58 59  2  0  0  0  0
 58 62  1  0  0  0  0
 59 60  1  0  0  0  0
 59136  1  0  0  0  0
 60 61  2  0  0  0  0
 60137  1  0  0  0  0
 61 62  1  0  0  0  0
 61 63  1  0  0  0  0
 62138  1  0  0  0  0
 63 64  1  0  0  0  0
 63 75  2  0  0  0  0
 64 65  1  0  0  0  0
 64 73  2  0  0  0  0
 65 66  1  0  0  0  0
 65 67  2  0  0  0  0
 67 68  1  0  0  0  0
 67 69  1  0  0  0  0
 69 70  1  0  0  0  0
 69 71  2  0  0  0  0
 71 72  1  0  0  0  0
 71 73  1  0  0  0  0
 73 74  1  0  0  0  0
 75 76  1  0  0  0  0
 75 96  1  0  0  0  0
 76 77  2  0  0  0  0
 77 78  1  0  0  0  0
 77 95  1  0  0  0  0
 78 79  1  0  0  0  0
 78 90  2  0  0  0  0
 79 80  1  0  0  0  0
 79 88  2  0  0  0  0
 80 81  1  0  0  0  0
 80 82  2  0  0  0  0
 82 83  1  0  0  0  0
 82 84  1  0  0  0  0
 84 85  1  0  0  0  0
 84 86  2  0  0  0  0
 86 87  1  0  0  0  0
 86 88  1  0  0  0  0
 88 89  1  0  0  0  0
 90 91  1  0  0  0  0
 90 94  1  0  0  0  0
 91 92  2  0  0  0  0
 91139  1  0  0  0  0
 92 93  1  0  0  0  0
 92140  1  0  0  0  0
 93 94  1  0  0  0  0
 94141  1  0  0  0  0
 95 96  2  0  0  0  0
 95142  1  0  0  0  0
 96143  1  0  0  0  0
 97 98  2  0  0  0  0
 97144  1  0  0  0  0
 98145  1  0  0  0  0
 99100  1  0  0  0  0
 99146  1  0  0  0  0
100147  1  0  0  0  0
M  CHG  1   1   1
M  END
$$$$
