1_1_2359
 OpenBabel01102313203D

125135  0  0  0  0  0  0  0  0999 V2000
    0.9581    0.2363    0.2005 O   0  0  0  0  0  0  0  0  0  0  0  0
    2.1516   -0.0134    0.0495 C   0  0  0  0  0  0  0  0  0  0  0  0
    3.0467   -0.3936    1.2156 C   0  0  0  0  0  0  0  0  0  0  0  0
    3.8871   -1.6069    0.9676 C   0  0  0  0  0  0  0  0  0  0  0  0
    5.3023   -1.6554    0.8611 C   0  0  0  0  0  0  0  0  0  0  0  0
    5.6672   -2.9800    0.7629 C   0  0  0  0  0  0  0  0  0  0  0  0
    4.5283   -3.7588    0.7569 N   0  0  0  0  0  0  0  0  0  0  0  0
    4.4847   -5.1719    0.7390 C   0  0  0  0  0  0  0  0  0  0  0  0
    5.4662   -5.9066    1.4188 C   0  0  0  0  0  0  0  0  0  0  0  0
    5.3882   -7.3016    1.4535 C   0  0  0  0  0  0  0  0  0  0  0  0
    4.3625   -7.9655    0.7789 C   0  0  0  0  0  0  0  0  0  0  0  0
    3.4022   -7.2348    0.0799 C   0  0  0  0  0  0  0  0  0  0  0  0
    3.4547   -5.8432    0.0773 C   0  0  0  0  0  0  0  0  0  0  0  0
    2.5335   -5.1784   -0.6352 F   0  0  0  0  0  0  0  0  0  0  0  0
    3.4436   -2.9110    0.8400 C   0  0  0  0  0  0  0  0  0  0  0  0
    2.8086    0.1326   -1.1528 N   0  0  0  0  0  0  0  0  0  0  0  0
    2.1569    0.6110   -2.3514 C   0  0  0  0  0  0  0  0  0  0  0  0
    2.7074    1.9716   -2.7790 C   0  0  0  0  0  0  0  0  0  0  0  0
    4.2051    1.9764   -3.1133 C   0  0  0  0  0  0  0  0  0  0  0  0
    4.6363    0.9939   -4.2084 C   0  0  0  0  0  0  0  0  0  0  0  0
    3.9067    1.1464   -5.5504 C   0  0  0  0  0  0  0  0  0  0  0  0
    4.1531    2.4883   -6.2405 C   0  0  0  0  0  0  0  0  0  0  0  0
    5.5333    2.5984   -6.6820 N   0  0  0  0  0  0  0  0  0  0  0  0
    6.1426    3.5590   -7.4461 C   0  0  0  0  0  0  0  0  0  0  0  0
    7.1972    3.2915   -8.0108 O   0  0  0  0  0  0  0  0  0  0  0  0
    5.5574    4.9063   -7.6128 C   0  0  0  0  0  0  0  0  0  0  0  0
    5.7183    5.5354   -8.8552 C   0  0  0  0  0  0  0  0  0  0  0  0
    5.2340    6.8239   -9.0503 C   0  0  0  0  0  0  0  0  0  0  0  0
    4.5762    7.4805   -8.0026 C   0  0  0  0  0  0  0  0  0  0  0  0
    3.8450    8.7317   -8.3042 C   0  0  0  0  0  0  0  0  0  0  0  0
    2.4801    8.4398   -8.9713 C   0  0  0  0  0  0  0  0  0  0  0  0
    1.7264    9.1968   -9.7092 N   0  0  0  0  0  0  0  0  0  0  0  0
    0.5190    8.5001   -9.9571 C   0  0  0  0  0  0  0  0  0  0  0  0
   -0.6071    9.1060  -10.4415 C   0  0  0  0  0  0  0  0  0  0  0  0
   -2.0499    8.6838  -10.5160 C   0  0  0  0  0  0  0  0  0  0  0  0
   -2.6721    7.8897   -9.5461 C   0  0  0  0  0  0  0  0  0  0  0  0
   -1.9519    7.1826   -8.6663 F   0  0  0  0  0  0  0  0  0  0  0  0
   -4.0640    7.8868   -9.3926 C   0  0  0  0  0  0  0  0  0  0  0  0
   -4.6203    7.1570   -8.4157 F   0  0  0  0  0  0  0  0  0  0  0  0
   -4.8687    8.6894  -10.1861 C   0  0  0  0  0  0  0  0  0  0  0  0
   -6.1861    8.7703   -9.9542 F   0  0  0  0  0  0  0  0  0  0  0  0
   -4.2961    9.4329  -11.1968 C   0  0  0  0  0  0  0  0  0  0  0  0
   -5.0552   10.2398  -11.9523 F   0  0  0  0  0  0  0  0  0  0  0  0
   -2.9159    9.4000  -11.3844 C   0  0  0  0  0  0  0  0  0  0  0  0
   -2.4229   10.1510  -12.3825 F   0  0  0  0  0  0  0  0  0  0  0  0
   -0.3291   10.4692  -10.7311 C   0  0  0  0  0  0  0  0  0  0  0  0
    0.3903   11.0588  -11.7356 C   0  0  0  0  0  0  0  0  0  0  0  0
    1.0254   12.1343  -11.0867 C   0  0  0  0  0  0  0  0  0  0  0  0
    0.4930   12.2926   -9.8018 C   0  0  0  0  0  0  0  0  0  0  0  0
   -0.5191   11.3721   -9.7163 N   0  0  0  0  0  0  0  0  0  0  0  0
    0.8772   12.9962   -8.6038 C   0  0  0  0  0  0  0  0  0  0  0  0
    0.5829   12.5800   -7.1777 C   0  0  0  0  0  0  0  0  0  0  0  0
    0.8431   11.3019   -6.6556 C   0  0  0  0  0  0  0  0  0  0  0  0
    1.2874   10.3240   -7.4412 F   0  0  0  0  0  0  0  0  0  0  0  0
    0.6513   10.9900   -5.3074 C   0  0  0  0  0  0  0  0  0  0  0  0
    0.9012    9.7483   -4.8625 F   0  0  0  0  0  0  0  0  0  0  0  0
    0.1953   11.9571   -4.4338 C   0  0  0  0  0  0  0  0  0  0  0  0
   -0.0024   11.6600   -3.1415 F   0  0  0  0  0  0  0  0  0  0  0  0
   -0.0718   13.2295   -4.9113 C   0  0  0  0  0  0  0  0  0  0  0  0
   -0.5240   14.1709   -4.0716 F   0  0  0  0  0  0  0  0  0  0  0  0
    0.1161   13.5351   -6.2621 C   0  0  0  0  0  0  0  0  0  0  0  0
   -0.1681   14.7774   -6.6810 F   0  0  0  0  0  0  0  0  0  0  0  0
    1.8845   13.8956   -8.7265 C   0  0  0  0  0  0  0  0  0  0  0  0
    2.8668   13.9314   -7.7679 N   0  0  0  0  0  0  0  0  0  0  0  0
    3.9472   13.8873   -8.4889 C   0  0  0  0  0  0  0  0  0  0  0  0
    5.2727   13.5072   -7.9824 C   0  0  0  0  0  0  0  0  0  0  0  0
    6.3071   14.6179   -7.9301 C   0  0  0  0  0  0  0  0  0  0  0  0
    6.0044   15.8926   -8.4985 C   0  0  0  0  0  0  0  0  0  0  0  0
    4.7496   16.2462   -8.8090 F   0  0  0  0  0  0  0  0  0  0  0  0
    6.9668   16.8589   -8.7915 C   0  0  0  0  0  0  0  0  0  0  0  0
    6.6147   17.9672   -9.4601 F   0  0  0  0  0  0  0  0  0  0  0  0
    8.2715   16.6543   -8.4211 C   0  0  0  0  0  0  0  0  0  0  0  0
    9.2092   17.5616   -8.7249 F   0  0  0  0  0  0  0  0  0  0  0  0
    8.5895   15.5040   -7.7202 C   0  0  0  0  0  0  0  0  0  0  0  0
    9.8459   15.3352   -7.2844 F   0  0  0  0  0  0  0  0  0  0  0  0
    7.6277   14.5011   -7.4828 C   0  0  0  0  0  0  0  0  0  0  0  0
    8.0348   13.4285   -6.7983 F   0  0  0  0  0  0  0  0  0  0  0  0
    5.1999   12.1524   -7.7795 C   0  0  0  0  0  0  0  0  0  0  0  0
    6.1843   11.2739   -7.1804 C   0  0  0  0  0  0  0  0  0  0  0  0
    5.7744    9.9916   -7.2835 C   0  0  0  0  0  0  0  0  0  0  0  0
    4.4718    9.9039   -7.9786 C   0  0  0  0  0  0  0  0  0  0  0  0
    4.1713   11.2426   -8.1553 N   0  0  0  0  0  0  0  0  0  0  0  0
    3.7947   14.1604   -9.9230 C   0  0  0  0  0  0  0  0  0  0  0  0
    2.4809   14.3598   -9.9587 C   0  0  0  0  0  0  0  0  0  0  0  0
    0.7140    7.1692   -9.4743 C   0  0  0  0  0  0  0  0  0  0  0  0
    1.8798    7.0812   -8.8302 C   0  0  0  0  0  0  0  0  0  0  0  0
    4.4547    6.8756   -6.7459 C   0  0  0  0  0  0  0  0  0  0  0  0
    4.9612    5.5937   -6.5500 C   0  0  0  0  0  0  0  0  0  0  0  0
    2.4275   -0.5817    2.0677 H   0  0  0  0  0  0  0  0  0  0  0  0
    3.7203    0.4237    1.3681 H   0  0  0  0  0  0  0  0  0  0  0  0
    5.9415   -0.8452    0.8579 H   0  0  0  0  0  0  0  0  0  0  0  0
    6.6353   -3.3326    0.7035 H   0  0  0  0  0  0  0  0  0  0  0  0
    6.2433   -5.4193    1.8918 H   0  0  0  0  0  0  0  0  0  0  0  0
    6.0917   -7.8428    1.9799 H   0  0  0  0  0  0  0  0  0  0  0  0
    4.3148   -8.9962    0.7974 H   0  0  0  0  0  0  0  0  0  0  0  0
    2.6537   -7.7246   -0.4347 H   0  0  0  0  0  0  0  0  0  0  0  0
    2.4545   -3.2041    0.8114 H   0  0  0  0  0  0  0  0  0  0  0  0
    3.7644   -0.0992   -1.1977 H   0  0  0  0  0  0  0  0  0  0  0  0
    1.1074    0.7030   -2.1642 H   0  0  0  0  0  0  0  0  0  0  0  0
    2.3416   -0.0900   -3.1384 H   0  0  0  0  0  0  0  0  0  0  0  0
    2.5410    2.6650   -1.9813 H   0  0  0  0  0  0  0  0  0  0  0  0
    2.1941    2.2379   -3.6793 H   0  0  0  0  0  0  0  0  0  0  0  0
    4.7435    1.7337   -2.2211 H   0  0  0  0  0  0  0  0  0  0  0  0
    4.4201    2.9538   -3.4920 H   0  0  0  0  0  0  0  0  0  0  0  0
    4.4630    0.0011   -3.8488 H   0  0  0  0  0  0  0  0  0  0  0  0
    5.6666    1.2044   -4.4060 H   0  0  0  0  0  0  0  0  0  0  0  0
    2.8559    1.0452   -5.3760 H   0  0  0  0  0  0  0  0  0  0  0  0
    4.2902    0.3878   -6.2004 H   0  0  0  0  0  0  0  0  0  0  0  0
    3.9410    3.2801   -5.5528 H   0  0  0  0  0  0  0  0  0  0  0  0
    3.5140    2.5553   -7.0960 H   0  0  0  0  0  0  0  0  0  0  0  0
    6.1233    1.8681   -6.3856 H   0  0  0  0  0  0  0  0  0  0  0  0
    6.1964    5.0419   -9.6252 H   0  0  0  0  0  0  0  0  0  0  0  0
    5.3584    7.2933   -9.9609 H   0  0  0  0  0  0  0  0  0  0  0  0
    0.4520   10.7819  -12.7278 H   0  0  0  0  0  0  0  0  0  0  0  0
    1.7712   12.7182  -11.4965 H   0  0  0  0  0  0  0  0  0  0  0  0
   -1.2454   11.3612   -9.0518 H   0  0  0  0  0  0  0  0  0  0  0  0
    7.0659   11.5820   -6.7411 H   0  0  0  0  0  0  0  0  0  0  0  0
    6.3006    9.1796   -6.9246 H   0  0  0  0  0  0  0  0  0  0  0  0
    3.3065   11.5451   -8.5158 H   0  0  0  0  0  0  0  0  0  0  0  0
    4.4976   14.1891  -10.6781 H   0  0  0  0  0  0  0  0  0  0  0  0
    1.9650   14.7819  -10.7466 H   0  0  0  0  0  0  0  0  0  0  0  0
    0.0502    6.3898   -9.6046 H   0  0  0  0  0  0  0  0  0  0  0  0
    2.2756    6.2607   -8.3453 H   0  0  0  0  0  0  0  0  0  0  0  0
    3.9931    7.3762   -5.9705 H   0  0  0  0  0  0  0  0  0  0  0  0
    4.8969    5.1503   -5.6204 H   0  0  0  0  0  0  0  0  0  0  0  0
  1  2  2  0  0  0  0
  2  3  1  0  0  0  0
  2 16  1  0  0  0  0
  3  4  1  0  0  0  0
  3 89  1  0  0  0  0
  3 90  1  0  0  0  0
  4  5  1  0  0  0  0
  4 15  2  0  0  0  0
  5  6  2  0  0  0  0
  5 91  1  0  0  0  0
  6  7  1  0  0  0  0
  6 92  1  0  0  0  0
  7  8  1  0  0  0  0
  7 15  1  0  0  0  0
  8  9  1  0  0  0  0
  8 13  2  0  0  0  0
  9 10  2  0  0  0  0
  9 93  1  0  0  0  0
 10 11  1  0  0  0  0
 10 94  1  0  0  0  0
 11 12  2  0  0  0  0
 11 95  1  0  0  0  0
 12 13  1  0  0  0  0
 12 96  1  0  0  0  0
 13 14  1  0  0  0  0
 15 97  1  0  0  0  0
 16 17  1  0  0  0  0
 16 98  1  0  0  0  0
 17 18  1  0  0  0  0
 17 99  1  0  0  0  0
 17100  1  0  0  0  0
 18 19  1  0  0  0  0
 18101  1  0  0  0  0
 18102  1  0  0  0  0
 19 20  1  0  0  0  0
 19103  1  0  0  0  0
 19104  1  0  0  0  0
 20 21  1  0  0  0  0
 20105  1  0  0  0  0
 20106  1  0  0  0  0
 21 22  1  0  0  0  0
 21107  1  0  0  0  0
 21108  1  0  0  0  0
 22 23  1  0  0  0  0
 22109  1  0  0  0  0
 22110  1  0  0  0  0
 23 24  1  0  0  0  0
 23111  1  0  0  0  0
 24 25  2  0  0  0  0
 24 26  1  0  0  0  0
 26 27  1  0  0  0  0
 26 88  2  0  0  0  0
 27 28  2  0  0  0  0
 27112  1  0  0  0  0
 28 29  1  0  0  0  0
 28113  1  0  0  0  0
 29 30  1  0  0  0  0
 29 87  2  0  0  0  0
 30 31  1  0  0  0  0
 30 81  2  0  0  0  0
 31 32  2  0  0  0  0
 31 86  1  0  0  0  0
 32 33  1  0  0  0  0
 33 34  2  0  0  0  0
 33 85  1  0  0  0  0
 34 35  1  0  0  0  0
 34 46  1  0  0  0  0
 35 36  1  0  0  0  0
 35 44  2  0  0  0  0
 36 37  1  0  0  0  0
 36 38  2  0  0  0  0
 38 39  1  0  0  0  0
 38 40  1  0  0  0  0
 40 41  1  0  0  0  0
 40 42  2  0  0  0  0
 42 43  1  0  0  0  0
 42 44  1  0  0  0  0
 44 45  1  0  0  0  0
 46 47  2  0  0  0  0
 46 50  1  0  0  0  0
 47 48  1  0  0  0  0
 47114  1  0  0  0  0
 48 49  2  0  0  0  0
 48115  1  0  0  0  0
 49 50  1  0  0  0  0
 49 51  1  0  0  0  0
 50116  1  0  0  0  0
 51 52  1  0  0  0  0
 51 63  2  0  0  0  0
 52 53  1  0  0  0  0
 52 61  2  0  0  0  0
 53 54  1  0  0  0  0
 53 55  2  0  0  0  0
 55 56  1  0  0  0  0
 55 57  1  0  0  0  0
 57 58  1  0  0  0  0
 57 59  2  0  0  0  0
 59 60  1  0  0  0  0
 59 61  1  0  0  0  0
 61 62  1  0  0  0  0
 63 64  1  0  0  0  0
 63 84  1  0  0  0  0
 64 65  2  0  0  0  0
 65 66  1  0  0  0  0
 65 83  1  0  0  0  0
 66 67  1  0  0  0  0
 66 78  2  0  0  0  0
 67 68  1  0  0  0  0
 67 76  2  0  0  0  0
 68 69  1  0  0  0  0
 68 70  2  0  0  0  0
 70 71  1  0  0  0  0
 70 72  1  0  0  0  0
 72 73  1  0  0  0  0
 72 74  2  0  0  0  0
 74 75  1  0  0  0  0
 74 76  1  0  0  0  0
 76 77  1  0  0  0  0
 78 79  1  0  0  0  0
 78 82  1  0  0  0  0
 79 80  2  0  0  0  0
 79117  1  0  0  0  0
 80 81  1  0  0  0  0
 80118  1  0  0  0  0
 81 82  1  0  0  0  0
 82119  1  0  0  0  0
 83 84  2  0  0  0  0
 83120  1  0  0  0  0
 84121  1  0  0  0  0
 85 86  2  0  0  0  0
 85122  1  0  0  0  0
 86123  1  0  0  0  0
 87 88  1  0  0  0  0
 87124  1  0  0  0  0
 88125  1  0  0  0  0
M  END
$$$$
