1_1_2273
 OpenBabel01102313203D

132141  0  0  0  0  0  0  0  0999 V2000
    0.9775   -0.5716    0.3613 O   0  0  0  0  0  0  0  0  0  0  0  0
    2.0543   -0.2212   -0.1162 C   0  0  0  0  0  0  0  0  0  0  0  0
    2.8037   -1.1144   -1.1177 C   0  0  0  0  0  0  0  0  0  0  0  0
    3.8965   -0.4571   -1.8259 N   0  0  0  0  0  0  0  0  0  0  0  0
    5.2399   -0.6836   -1.7432 C   0  0  0  0  0  0  0  0  0  0  0  0
    5.9896    0.0017   -2.4401 O   0  0  0  0  0  0  0  0  0  0  0  0
    5.7877   -1.7037   -0.7437 C   0  0  0  0  0  0  0  0  0  0  0  0
    5.6210   -1.1364    0.5775 N   0  0  0  0  0  0  0  0  0  0  0  0
    4.9429   -1.6853    1.6165 C   0  0  0  0  0  0  0  0  0  0  0  0
    4.5709   -0.9797    2.5458 O   0  0  0  0  0  0  0  0  0  0  0  0
    4.7175   -3.0117    1.4922 O   0  0  0  0  0  0  0  0  0  0  0  0
    3.8921   -3.5927    2.5167 C   0  0  0  0  0  0  0  0  0  0  0  0
    4.6586   -3.9980    3.7570 C   0  0  0  0  0  0  0  0  0  0  0  0
    4.9702   -5.3421    4.0032 C   0  0  0  0  0  0  0  0  0  0  0  0
    5.6394   -5.7141    5.1738 C   0  0  0  0  0  0  0  0  0  0  0  0
    6.0217   -4.7483    6.1032 C   0  0  0  0  0  0  0  0  0  0  0  0
    5.7264   -3.4105    5.8694 C   0  0  0  0  0  0  0  0  0  0  0  0
    5.0401   -3.0426    4.7122 C   0  0  0  0  0  0  0  0  0  0  0  0
    2.7028    0.9381    0.2492 N   0  0  0  0  0  0  0  0  0  0  0  0
    2.1250    1.8999    1.1695 C   0  0  0  0  0  0  0  0  0  0  0  0
    2.6708    1.7822    2.5932 C   0  0  0  0  0  0  0  0  0  0  0  0
    4.1604    2.1138    2.7480 C   0  0  0  0  0  0  0  0  0  0  0  0
    4.5901    3.5206    2.3304 C   0  0  0  0  0  0  0  0  0  0  0  0
    3.8838    4.6732    3.0431 C   0  0  0  0  0  0  0  0  0  0  0  0
    4.0065    4.6825    4.5653 C   0  0  0  0  0  0  0  0  0  0  0  0
    5.3814    4.8055    5.0241 N   0  0  0  0  0  0  0  0  0  0  0  0
    5.9484    5.6881    5.9102 C   0  0  0  0  0  0  0  0  0  0  0  0
    7.1676    5.7039    6.0582 O   0  0  0  0  0  0  0  0  0  0  0  0
    5.1131    6.6462    6.6713 C   0  0  0  0  0  0  0  0  0  0  0  0
    5.5709    7.9600    6.8168 C   0  0  0  0  0  0  0  0  0  0  0  0
    4.7895    8.9019    7.4909 C   0  0  0  0  0  0  0  0  0  0  0  0
    3.5276    8.5479    7.9953 C   0  0  0  0  0  0  0  0  0  0  0  0
    2.6430    9.5698    8.6123 C   0  0  0  0  0  0  0  0  0  0  0  0
    2.2897    9.5053   10.0711 C   0  0  0  0  0  0  0  0  0  0  0  0
    1.5300   10.3083   10.7746 N   0  0  0  0  0  0  0  0  0  0  0  0
    1.5013    9.7770   12.0568 C   0  0  0  0  0  0  0  0  0  0  0  0
    0.8957   10.2706   13.1641 C   0  0  0  0  0  0  0  0  0  0  0  0
    1.0240    9.4783   14.4327 C   0  0  0  0  0  0  0  0  0  0  0  0
    2.2403    9.3925   15.1270 C   0  0  0  0  0  0  0  0  0  0  0  0
    3.3372    9.9950   14.6439 F   0  0  0  0  0  0  0  0  0  0  0  0
    2.3444    8.6516   16.3016 C   0  0  0  0  0  0  0  0  0  0  0  0
    3.5280    8.5435   16.9209 F   0  0  0  0  0  0  0  0  0  0  0  0
    1.2294    8.0130   16.8229 C   0  0  0  0  0  0  0  0  0  0  0  0
    1.3306    7.3028   17.9550 F   0  0  0  0  0  0  0  0  0  0  0  0
    0.0114    8.1042   16.1663 C   0  0  0  0  0  0  0  0  0  0  0  0
   -1.0696    7.4970   16.6753 F   0  0  0  0  0  0  0  0  0  0  0  0
   -0.0897    8.8211   14.9767 C   0  0  0  0  0  0  0  0  0  0  0  0
   -1.2781    8.8771   14.3568 F   0  0  0  0  0  0  0  0  0  0  0  0
    0.1428   11.4977   13.2027 C   0  0  0  0  0  0  0  0  0  0  0  0
   -0.4314   12.1254   14.2949 C   0  0  0  0  0  0  0  0  0  0  0  0
   -1.1056   13.2655   13.8419 C   0  0  0  0  0  0  0  0  0  0  0  0
   -0.9158   13.3716   12.4738 C   0  0  0  0  0  0  0  0  0  0  0  0
   -0.1469   12.2814   12.0954 N   0  0  0  0  0  0  0  0  0  0  0  0
   -1.3988   14.3878   11.5742 C   0  0  0  0  0  0  0  0  0  0  0  0
   -2.2399   15.4934   12.1414 C   0  0  0  0  0  0  0  0  0  0  0  0
   -3.6159   15.5747   11.8805 C   0  0  0  0  0  0  0  0  0  0  0  0
   -4.2062   14.6709   11.0838 F   0  0  0  0  0  0  0  0  0  0  0  0
   -4.3824   16.6145   12.4000 C   0  0  0  0  0  0  0  0  0  0  0  0
   -5.6845   16.7016   12.0950 F   0  0  0  0  0  0  0  0  0  0  0  0
   -3.7966   17.5712   13.2156 C   0  0  0  0  0  0  0  0  0  0  0  0
   -4.5357   18.5718   13.7140 F   0  0  0  0  0  0  0  0  0  0  0  0
   -2.4425   17.4968   13.5053 C   0  0  0  0  0  0  0  0  0  0  0  0
   -1.8771   18.4153   14.3009 F   0  0  0  0  0  0  0  0  0  0  0  0
   -1.6676   16.4741   12.9651 C   0  0  0  0  0  0  0  0  0  0  0  0
   -0.3570   16.4390   13.2484 F   0  0  0  0  0  0  0  0  0  0  0  0
   -1.1338   14.4361   10.2456 C   0  0  0  0  0  0  0  0  0  0  0  0
   -0.3832   13.5600    9.4744 N   0  0  0  0  0  0  0  0  0  0  0  0
   -0.4369   14.0223    8.2496 C   0  0  0  0  0  0  0  0  0  0  0  0
    0.2123   13.4881    7.0039 C   0  0  0  0  0  0  0  0  0  0  0  0
    0.0646   14.1954    5.7071 C   0  0  0  0  0  0  0  0  0  0  0  0
    0.6980   15.4268    5.4897 C   0  0  0  0  0  0  0  0  0  0  0  0
    1.4201   15.9898    6.4697 F   0  0  0  0  0  0  0  0  0  0  0  0
    0.5639   16.1001    4.2779 C   0  0  0  0  0  0  0  0  0  0  0  0
    1.1506   17.2926    4.1082 F   0  0  0  0  0  0  0  0  0  0  0  0
   -0.1858   15.5433    3.2527 C   0  0  0  0  0  0  0  0  0  0  0  0
   -0.3095   16.1882    2.0847 F   0  0  0  0  0  0  0  0  0  0  0  0
   -0.8120   14.3201    3.4416 C   0  0  0  0  0  0  0  0  0  0  0  0
   -1.5276   13.7742    2.4489 F   0  0  0  0  0  0  0  0  0  0  0  0
   -0.6979   13.6571    4.6615 C   0  0  0  0  0  0  0  0  0  0  0  0
   -1.3201   12.4799    4.8208 F   0  0  0  0  0  0  0  0  0  0  0  0
    0.9713   12.3788    7.0770 C   0  0  0  0  0  0  0  0  0  0  0  0
    1.6742   11.7608    5.9568 C   0  0  0  0  0  0  0  0  0  0  0  0
    2.3278   10.6739    6.3962 C   0  0  0  0  0  0  0  0  0  0  0  0
    2.1120   10.5351    7.8371 C   0  0  0  0  0  0  0  0  0  0  0  0
    1.2802   11.5810    8.1510 N   0  0  0  0  0  0  0  0  0  0  0  0
   -1.2482   15.2386    8.1008 C   0  0  0  0  0  0  0  0  0  0  0  0
   -1.6177   15.4691    9.3527 C   0  0  0  0  0  0  0  0  0  0  0  0
    2.2826    8.5585   12.0247 C   0  0  0  0  0  0  0  0  0  0  0  0
    2.8414    8.3780   10.8364 C   0  0  0  0  0  0  0  0  0  0  0  0
    3.0969    7.2178    7.8800 C   0  0  0  0  0  0  0  0  0  0  0  0
    3.9072    6.2628    7.2645 C   0  0  0  0  0  0  0  0  0  0  0  0
    2.0995   -1.4640   -1.8435 H   0  0  0  0  0  0  0  0  0  0  0  0
    3.2469   -1.9023   -0.5452 H   0  0  0  0  0  0  0  0  0  0  0  0
    3.6263    0.2516   -2.4536 H   0  0  0  0  0  0  0  0  0  0  0  0
    6.8242   -1.8865   -0.9366 H   0  0  0  0  0  0  0  0  0  0  0  0
    5.2680   -2.6353   -0.8266 H   0  0  0  0  0  0  0  0  0  0  0  0
    6.0433   -0.2618    0.7388 H   0  0  0  0  0  0  0  0  0  0  0  0
    3.4160   -4.4624    2.1144 H   0  0  0  0  0  0  0  0  0  0  0  0
    3.1885   -2.8435    2.8143 H   0  0  0  0  0  0  0  0  0  0  0  0
    4.7037   -6.0635    3.3150 H   0  0  0  0  0  0  0  0  0  0  0  0
    5.8511   -6.7086    5.3502 H   0  0  0  0  0  0  0  0  0  0  0  0
    6.5223   -5.0256    6.9620 H   0  0  0  0  0  0  0  0  0  0  0  0
    6.0143   -2.6908    6.5506 H   0  0  0  0  0  0  0  0  0  0  0  0
    4.8084   -2.0493    4.5552 H   0  0  0  0  0  0  0  0  0  0  0  0
    3.5932    1.1212   -0.1289 H   0  0  0  0  0  0  0  0  0  0  0  0
    1.0663    1.7478    1.1985 H   0  0  0  0  0  0  0  0  0  0  0  0
    2.3840    2.8744    0.8116 H   0  0  0  0  0  0  0  0  0  0  0  0
    2.5189    0.7761    2.9244 H   0  0  0  0  0  0  0  0  0  0  0  0
    2.1418    2.5069    3.1762 H   0  0  0  0  0  0  0  0  0  0  0  0
    4.7129    1.4151    2.1551 H   0  0  0  0  0  0  0  0  0  0  0  0
    4.3570    2.0563    3.7982 H   0  0  0  0  0  0  0  0  0  0  0  0
    4.4059    3.6218    1.2812 H   0  0  0  0  0  0  0  0  0  0  0  0
    5.6219    3.6009    2.6021 H   0  0  0  0  0  0  0  0  0  0  0  0
    2.8436    4.6243    2.7970 H   0  0  0  0  0  0  0  0  0  0  0  0
    4.3670    5.5661    2.7052 H   0  0  0  0  0  0  0  0  0  0  0  0
    3.6006    3.7684    4.9457 H   0  0  0  0  0  0  0  0  0  0  0  0
    3.4717    5.5370    4.9242 H   0  0  0  0  0  0  0  0  0  0  0  0
    6.0061    4.1504    4.6369 H   0  0  0  0  0  0  0  0  0  0  0  0
    6.4861    8.2336    6.4261 H   0  0  0  0  0  0  0  0  0  0  0  0
    5.1418    9.8634    7.6189 H   0  0  0  0  0  0  0  0  0  0  0  0
   -0.3725   11.8074   15.2749 H   0  0  0  0  0  0  0  0  0  0  0  0
   -1.6514   13.9165   14.4278 H   0  0  0  0  0  0  0  0  0  0  0  0
    0.1498   12.0915   11.1761 H   0  0  0  0  0  0  0  0  0  0  0  0
    1.6694   12.1043    4.9836 H   0  0  0  0  0  0  0  0  0  0  0  0
    2.8922   10.0378    5.8115 H   0  0  0  0  0  0  0  0  0  0  0  0
    0.9378   11.7436    9.0596 H   0  0  0  0  0  0  0  0  0  0  0  0
   -1.4715   15.7727    7.2464 H   0  0  0  0  0  0  0  0  0  0  0  0
   -2.1789   16.2814    9.6532 H   0  0  0  0  0  0  0  0  0  0  0  0
    2.3905    7.9140   12.8235 H   0  0  0  0  0  0  0  0  0  0  0  0
    3.4932    7.6393   10.5289 H   0  0  0  0  0  0  0  0  0  0  0  0
    2.1745    6.9437    8.2529 H   0  0  0  0  0  0  0  0  0  0  0  0
    3.6158    5.2729    7.2474 H   0  0  0  0  0  0  0  0  0  0  0  0
  1  2  2  0  0  0  0
  2  3  1  0  0  0  0
  2 19  1  0  0  0  0
  3  4  1  0  0  0  0
  3 92  1  0  0  0  0
  3 93  1  0  0  0  0
  4  5  1  0  0  0  0
  4 94  1  0  0  0  0
  5  6  2  0  0  0  0
  5  7  1  0  0  0  0
  7  8  1  0  0  0  0
  7 95  1  0  0  0  0
  7 96  1  0  0  0  0
  8  9  1  0  0  0  0
  8 97  1  0  0  0  0
  9 10  2  0  0  0  0
  9 11  1  0  0  0  0
 11 12  1  0  0  0  0
 12 13  1  0  0  0  0
 12 98  1  0  0  0  0
 12 99  1  0  0  0  0
 13 14  1  0  0  0  0
 13 18  2  0  0  0  0
 14 15  2  0  0  0  0
 14100  1  0  0  0  0
 15 16  1  0  0  0  0
 15101  1  0  0  0  0
 16 17  2  0  0  0  0
 16102  1  0  0  0  0
 17 18  1  0  0  0  0
 17103  1  0  0  0  0
 18104  1  0  0  0  0
 19 20  1  0  0  0  0
 19105  1  0  0  0  0
 20 21  1  0  0  0  0
 20106  1  0  0  0  0
 20107  1  0  0  0  0
 21 22  1  0  0  0  0
 21108  1  0  0  0  0
 21109  1  0  0  0  0
 22 23  1  0  0  0  0
 22110  1  0  0  0  0
 22111  1  0  0  0  0
 23 24  1  0  0  0  0
 23112  1  0  0  0  0
 23113  1  0  0  0  0
 24 25  1  0  0  0  0
 24114  1  0  0  0  0
 24115  1  0  0  0  0
 25 26  1  0  0  0  0
 25116  1  0  0  0  0
 25117  1  0  0  0  0
 26 27  1  0  0  0  0
 26118  1  0  0  0  0
 27 28  2  0  0  0  0
 27 29  1  0  0  0  0
 29 30  1  0  0  0  0
 29 91  2  0  0  0  0
 30 31  2  0  0  0  0
 30119  1  0  0  0  0
 31 32  1  0  0  0  0
 31120  1  0  0  0  0
 32 33  1  0  0  0  0
 32 90  2  0  0  0  0
 33 34  1  0  0  0  0
 33 84  2  0  0  0  0
 34 35  2  0  0  0  0
 34 89  1  0  0  0  0
 35 36  1  0  0  0  0
 36 37  2  0  0  0  0
 36 88  1  0  0  0  0
 37 38  1  0  0  0  0
 37 49  1  0  0  0  0
 38 39  1  0  0  0  0
 38 47  2  0  0  0  0
 39 40  1  0  0  0  0
 39 41  2  0  0  0  0
 41 42  1  0  0  0  0
 41 43  1  0  0  0  0
 43 44  1  0  0  0  0
 43 45  2  0  0  0  0
 45 46  1  0  0  0  0
 45 47  1  0  0  0  0
 47 48  1  0  0  0  0
 49 50  2  0  0  0  0
 49 53  1  0  0  0  0
 50 51  1  0  0  0  0
 50121  1  0  0  0  0
 51 52  2  0  0  0  0
 51122  1  0  0  0  0
 52 53  1  0  0  0  0
 52 54  1  0  0  0  0
 53123  1  0  0  0  0
 54 55  1  0  0  0  0
 54 66  2  0  0  0  0
 55 56  1  0  0  0  0
 55 64  2  0  0  0  0
 56 57  1  0  0  0  0
 56 58  2  0  0  0  0
 58 59  1  0  0  0  0
 58 60  1  0  0  0  0
 60 61  1  0  0  0  0
 60 62  2  0  0  0  0
 62 63  1  0  0  0  0
 62 64  1  0  0  0  0
 64 65  1  0  0  0  0
 66 67  1  0  0  0  0
 66 87  1  0  0  0  0
 67 68  2  0  0  0  0
 68 69  1  0  0  0  0
 68 86  1  0  0  0  0
 69 70  1  0  0  0  0
 69 81  2  0  0  0  0
 70 71  1  0  0  0  0
 70 79  2  0  0  0  0
 71 72  1  0  0  0  0
 71 73  2  0  0  0  0
 73 74  1  0  0  0  0
 73 75  1  0  0  0  0
 75 76  1  0  0  0  0
 75 77  2  0  0  0  0
 77 78  1  0  0  0  0
 77 79  1  0  0  0  0
 79 80  1  0  0  0  0
 81 82  1  0  0  0  0
 81 85  1  0  0  0  0
 82 83  2  0  0  0  0
 82124  1  0  0  0  0
 83 84  1  0  0  0  0
 83125  1  0  0  0  0
 84 85  1  0  0  0  0
 85126  1  0  0  0  0
 86 87  2  0  0  0  0
 86127  1  0  0  0  0
 87128  1  0  0  0  0
 88 89  2  0  0  0  0
 88129  1  0  0  0  0
 89130  1  0  0  0  0
 90 91  1  0  0  0  0
 90131  1  0  0  0  0
 91132  1  0  0  0  0
M  END
$$$$
