1_1_1752
 OpenBabel01102313203D

149162  0  0  0  0  0  0  0  0999 V2000
    1.1564    0.5630   -0.7979 O   0  0  0  0  0  0  0  0  0  0  0  0
    2.1548    0.1069   -0.2344 C   0  0  0  0  0  0  0  0  0  0  0  0
    3.2014   -0.2252   -1.0448 N   0  0  0  0  0  0  0  0  0  0  0  0
    4.5775   -0.6139   -0.8272 C   0  0  0  0  0  0  0  0  0  0  0  0
    4.7781   -2.1182   -0.6388 C   0  0  0  0  0  0  0  0  0  0  0  0
    4.2699   -2.9899   -1.7936 C   0  0  0  0  0  0  0  0  0  0  0  0
    4.8007   -2.6308   -3.1848 C   0  0  0  0  0  0  0  0  0  0  0  0
    6.3248   -2.5829   -3.3160 C   0  0  0  0  0  0  0  0  0  0  0  0
    7.0398   -3.8845   -2.9661 C   0  0  0  0  0  0  0  0  0  0  0  0
    6.7491   -4.9492   -3.9134 N   0  0  0  0  0  0  0  0  0  0  0  0
    7.5979   -5.5918   -4.7760 C   0  0  0  0  0  0  0  0  0  0  0  0
    7.1612   -6.3863   -5.6121 O   0  0  0  0  0  0  0  0  0  0  0  0
    9.0427   -5.3046   -4.7250 C   0  0  0  0  0  0  0  0  0  0  0  0
    9.6803   -4.8513   -5.8863 C   0  0  0  0  0  0  0  0  0  0  0  0
   11.0193   -4.4615   -5.8401 C   0  0  0  0  0  0  0  0  0  0  0  0
   11.7222   -4.5981   -4.6429 C   0  0  0  0  0  0  0  0  0  0  0  0
   13.1018   -4.3363   -4.6228 N   0  0  0  0  0  0  0  0  0  0  0  0
   14.0426   -5.1667   -4.0920 C   0  0  0  0  0  0  0  0  0  0  0  0
   15.2452   -4.5245   -4.2226 C   0  0  0  0  0  0  0  0  0  0  0  0
   16.5593   -4.8571   -3.6209 C   0  0  0  0  0  0  0  0  0  0  0  0
   17.6801   -6.1083   -4.2502 S   0  0  0  0  0  0  0  0  0  0  0  0
   16.9198   -7.3521   -5.2052 C   0  0  0  0  0  0  0  0  0  0  0  0
   17.6789   -7.7592   -6.1840 N   0  0  0  0  0  0  0  0  0  0  0  0
   17.1380   -8.6572   -7.1149 C   0  0  0  0  0  0  0  0  0  0  0  0
   17.9468   -9.4105   -7.9642 C   0  0  0  0  0  0  0  0  0  0  0  0
   17.3733  -10.1632   -8.9985 C   0  0  0  0  0  0  0  0  0  0  0  0
   15.9924  -10.1339   -9.2117 C   0  0  0  0  0  0  0  0  0  0  0  0
   15.1750   -9.4178   -8.3416 C   0  0  0  0  0  0  0  0  0  0  0  0
   15.7623   -8.7283   -7.2782 C   0  0  0  0  0  0  0  0  0  0  0  0
   14.9675   -8.1296   -6.2001 C   0  0  0  0  0  0  0  0  0  0  0  0
   13.7827   -7.8775   -6.4099 O   0  0  0  0  0  0  0  0  0  0  0  0
   15.6614   -7.8913   -5.0080 N   0  0  0  0  0  0  0  0  0  0  0  0
   14.9891   -8.1719   -3.7575 C   0  0  0  0  0  0  0  0  0  0  0  0
   13.7648   -8.8758   -3.7694 C   0  0  0  0  0  0  0  0  0  0  0  0
   12.9205   -8.9166   -2.6579 C   0  0  0  0  0  0  0  0  0  0  0  0
   13.2947   -8.2726   -1.4902 C   0  0  0  0  0  0  0  0  0  0  0  0
   14.5675   -7.7215   -1.4001 C   0  0  0  0  0  0  0  0  0  0  0  0
   15.4363   -7.7467   -2.5025 C   0  0  0  0  0  0  0  0  0  0  0  0
   14.9912   -3.2955   -4.7932 N   0  0  0  0  0  0  0  0  0  0  0  0
   13.6924   -3.2217   -5.0941 N   0  0  0  0  0  0  0  0  0  0  0  0
   11.1061   -5.1250   -3.4935 C   0  0  0  0  0  0  0  0  0  0  0  0
    9.7588   -5.4728   -3.5345 C   0  0  0  0  0  0  0  0  0  0  0  0
    2.1018   -0.1130    1.2365 C   0  0  0  0  0  0  0  0  0  0  0  0
    3.1514   -0.5592    2.0412 C   0  0  0  0  0  0  0  0  0  0  0  0
    2.9205   -0.9064    3.3695 C   0  0  0  0  0  0  0  0  0  0  0  0
    1.6369   -0.7922    3.9079 C   0  0  0  0  0  0  0  0  0  0  0  0
    1.4396   -1.1222    5.3148 C   0  0  0  0  0  0  0  0  0  0  0  0
    2.1285   -0.1979    6.2605 C   0  0  0  0  0  0  0  0  0  0  0  0
    3.0234   -0.4817    7.1506 N   0  0  0  0  0  0  0  0  0  0  0  0
    3.3163    0.7181    7.8003 C   0  0  0  0  0  0  0  0  0  0  0  0
    3.8516    0.7287    9.0530 C   0  0  0  0  0  0  0  0  0  0  0  0
    3.4400    1.6955   10.1469 C   0  0  0  0  0  0  0  0  0  0  0  0
    4.0551    1.5821   11.4129 C   0  0  0  0  0  0  0  0  0  0  0  0
    5.1926    0.8863   11.5621 F   0  0  0  0  0  0  0  0  0  0  0  0
    3.4573    2.0790   12.5740 C   0  0  0  0  0  0  0  0  0  0  0  0
    3.9993    1.8067   13.7686 F   0  0  0  0  0  0  0  0  0  0  0  0
    2.2658    2.7742   12.5058 C   0  0  0  0  0  0  0  0  0  0  0  0
    1.6466    3.1781   13.6222 F   0  0  0  0  0  0  0  0  0  0  0  0
    1.6924    3.0064   11.2749 C   0  0  0  0  0  0  0  0  0  0  0  0
    0.5328    3.6734   11.1879 F   0  0  0  0  0  0  0  0  0  0  0  0
    2.2595    2.4695   10.1197 C   0  0  0  0  0  0  0  0  0  0  0  0
    1.5432    2.6522    9.0064 F   0  0  0  0  0  0  0  0  0  0  0  0
    4.4866   -0.5291    9.3534 C   0  0  0  0  0  0  0  0  0  0  0  0
    5.5383   -1.2460    8.8165 C   0  0  0  0  0  0  0  0  0  0  0  0
    5.1473   -2.6137    8.9277 C   0  0  0  0  0  0  0  0  0  0  0  0
    3.9139   -2.6488    9.5773 C   0  0  0  0  0  0  0  0  0  0  0  0
    3.8157   -1.4142   10.1590 N   0  0  0  0  0  0  0  0  0  0  0  0
    2.8633   -3.6333    9.6363 C   0  0  0  0  0  0  0  0  0  0  0  0
    3.1870   -5.0038    9.1172 C   0  0  0  0  0  0  0  0  0  0  0  0
    2.7116   -5.5150    7.8968 C   0  0  0  0  0  0  0  0  0  0  0  0
    1.8902   -4.7975    7.1206 F   0  0  0  0  0  0  0  0  0  0  0  0
    3.1282   -6.7581    7.4240 C   0  0  0  0  0  0  0  0  0  0  0  0
    2.6543   -7.2290    6.2607 F   0  0  0  0  0  0  0  0  0  0  0  0
    4.0632   -7.4924    8.1341 C   0  0  0  0  0  0  0  0  0  0  0  0
    4.4989   -8.6672    7.6581 F   0  0  0  0  0  0  0  0  0  0  0  0
    4.5709   -6.9936    9.3229 C   0  0  0  0  0  0  0  0  0  0  0  0
    5.5146   -7.6754    9.9864 F   0  0  0  0  0  0  0  0  0  0  0  0
    4.1282   -5.7702    9.8156 C   0  0  0  0  0  0  0  0  0  0  0  0
    4.6598   -5.3046   10.9569 F   0  0  0  0  0  0  0  0  0  0  0  0
    1.5593   -3.3546    9.9266 C   0  0  0  0  0  0  0  0  0  0  0  0
    0.5446   -4.2135    9.5343 N   0  0  0  0  0  0  0  0  0  0  0  0
   -0.4952   -3.4430    9.3818 C   0  0  0  0  0  0  0  0  0  0  0  0
   -1.4761   -3.5879    8.2780 C   0  0  0  0  0  0  0  0  0  0  0  0
   -2.9348   -3.6893    8.5367 C   0  0  0  0  0  0  0  0  0  0  0  0
   -3.4312   -4.3358    9.6821 C   0  0  0  0  0  0  0  0  0  0  0  0
   -2.6104   -5.0601   10.4567 F   0  0  0  0  0  0  0  0  0  0  0  0
   -4.7625   -4.1886   10.0911 C   0  0  0  0  0  0  0  0  0  0  0  0
   -5.1840   -4.7707   11.2229 F   0  0  0  0  0  0  0  0  0  0  0  0
   -5.6349   -3.3944    9.3657 C   0  0  0  0  0  0  0  0  0  0  0  0
   -6.8919   -3.2024    9.7897 F   0  0  0  0  0  0  0  0  0  0  0  0
   -5.1845   -2.7628    8.2219 C   0  0  0  0  0  0  0  0  0  0  0  0
   -6.0063   -1.9576    7.5336 F   0  0  0  0  0  0  0  0  0  0  0  0
   -3.8562   -2.9042    7.8166 C   0  0  0  0  0  0  0  0  0  0  0  0
   -3.4616   -2.1775    6.7616 F   0  0  0  0  0  0  0  0  0  0  0  0
   -0.8468   -3.2493    7.1228 C   0  0  0  0  0  0  0  0  0  0  0  0
   -1.2377   -3.4809    5.7428 C   0  0  0  0  0  0  0  0  0  0  0  0
   -0.3538   -2.8627    4.9257 C   0  0  0  0  0  0  0  0  0  0  0  0
    0.5897   -2.0836    5.7309 C   0  0  0  0  0  0  0  0  0  0  0  0
    0.3207   -2.5047    6.9997 N   0  0  0  0  0  0  0  0  0  0  0  0
   -0.4235   -2.1521   10.0494 C   0  0  0  0  0  0  0  0  0  0  0  0
    0.8867   -2.1132   10.3030 C   0  0  0  0  0  0  0  0  0  0  0  0
    2.6951    1.7597    7.0280 C   0  0  0  0  0  0  0  0  0  0  0  0
    1.8690    1.2447    6.1173 C   0  0  0  0  0  0  0  0  0  0  0  0
    0.6044   -0.2470    3.1547 C   0  0  0  0  0  0  0  0  0  0  0  0
    0.8396    0.0876    1.8293 C   0  0  0  0  0  0  0  0  0  0  0  0
    2.9647   -0.1926   -1.9999 H   0  0  0  0  0  0  0  0  0  0  0  0
    4.9331   -0.1149    0.0499 H   0  0  0  0  0  0  0  0  0  0  0  0
    5.1194   -0.3378   -1.7075 H   0  0  0  0  0  0  0  0  0  0  0  0
    4.2624   -2.4128    0.2512 H   0  0  0  0  0  0  0  0  0  0  0  0
    5.8354   -2.2748   -0.5891 H   0  0  0  0  0  0  0  0  0  0  0  0
    3.2031   -2.9113   -1.8191 H   0  0  0  0  0  0  0  0  0  0  0  0
    4.6294   -3.9773   -1.5918 H   0  0  0  0  0  0  0  0  0  0  0  0
    4.4169   -1.6666   -3.4454 H   0  0  0  0  0  0  0  0  0  0  0  0
    4.4742   -3.4150   -3.8354 H   0  0  0  0  0  0  0  0  0  0  0  0
    6.6908   -1.8169   -2.6647 H   0  0  0  0  0  0  0  0  0  0  0  0
    6.5318   -2.3945   -4.3487 H   0  0  0  0  0  0  0  0  0  0  0  0
    6.7273   -4.1969   -1.9916 H   0  0  0  0  0  0  0  0  0  0  0  0
    8.0928   -3.6972   -2.9991 H   0  0  0  0  0  0  0  0  0  0  0  0
    5.8120   -5.2500   -3.9383 H   0  0  0  0  0  0  0  0  0  0  0  0
    9.1599   -4.8055   -6.7763 H   0  0  0  0  0  0  0  0  0  0  0  0
   11.4825   -4.0780   -6.6788 H   0  0  0  0  0  0  0  0  0  0  0  0
   13.8809   -6.0963   -3.6740 H   0  0  0  0  0  0  0  0  0  0  0  0
   16.3490   -5.1416   -2.6111 H   0  0  0  0  0  0  0  0  0  0  0  0
   17.1100   -3.9678   -3.8462 H   0  0  0  0  0  0  0  0  0  0  0  0
   18.9702   -9.4141   -7.8313 H   0  0  0  0  0  0  0  0  0  0  0  0
   17.9741  -10.7421   -9.6058 H   0  0  0  0  0  0  0  0  0  0  0  0
   15.5805  -10.6409  -10.0106 H   0  0  0  0  0  0  0  0  0  0  0  0
   14.1525   -9.3967   -8.4799 H   0  0  0  0  0  0  0  0  0  0  0  0
   13.4850   -9.3763   -4.6275 H   0  0  0  0  0  0  0  0  0  0  0  0
   12.0230   -9.4236   -2.7062 H   0  0  0  0  0  0  0  0  0  0  0  0
   12.6373   -8.2029   -0.6977 H   0  0  0  0  0  0  0  0  0  0  0  0
   14.8766   -7.2900   -0.5150 H   0  0  0  0  0  0  0  0  0  0  0  0
   16.4171   -7.4478   -2.3854 H   0  0  0  0  0  0  0  0  0  0  0  0
   11.6493   -5.2529   -2.6254 H   0  0  0  0  0  0  0  0  0  0  0  0
    9.2926   -5.8510   -2.6951 H   0  0  0  0  0  0  0  0  0  0  0  0
    4.1034   -0.6321    1.6495 H   0  0  0  0  0  0  0  0  0  0  0  0
    3.6977   -1.2481    3.9562 H   0  0  0  0  0  0  0  0  0  0  0  0
    6.4157   -0.8735    8.4211 H   0  0  0  0  0  0  0  0  0  0  0  0
    5.6808   -3.4294    8.5887 H   0  0  0  0  0  0  0  0  0  0  0  0
    3.3500   -1.2006   10.9997 H   0  0  0  0  0  0  0  0  0  0  0  0
   -2.0568   -4.0283    5.4355 H   0  0  0  0  0  0  0  0  0  0  0  0
   -0.3457   -2.9297    3.8959 H   0  0  0  0  0  0  0  0  0  0  0  0
    0.9048   -2.2985    7.7650 H   0  0  0  0  0  0  0  0  0  0  0  0
   -1.1662   -1.4684   10.2636 H   0  0  0  0  0  0  0  0  0  0  0  0
    1.3688   -1.3001   10.7171 H   0  0  0  0  0  0  0  0  0  0  0  0
    2.8656    2.7688    7.1607 H   0  0  0  0  0  0  0  0  0  0  0  0
    1.2185    1.7295    5.4795 H   0  0  0  0  0  0  0  0  0  0  0  0
   -0.3251   -0.0931    3.5758 H   0  0  0  0  0  0  0  0  0  0  0  0
    0.0748    0.4915    1.2663 H   0  0  0  0  0  0  0  0  0  0  0  0
  1  2  2  0  0  0  0
  2  3  1  0  0  0  0
  2 43  1  0  0  0  0
  3  4  1  0  0  0  0
  3106  1  0  0  0  0
  4  5  1  0  0  0  0
  4107  1  0  0  0  0
  4108  1  0  0  0  0
  5  6  1  0  0  0  0
  5109  1  0  0  0  0
  5110  1  0  0  0  0
  6  7  1  0  0  0  0
  6111  1  0  0  0  0
  6112  1  0  0  0  0
  7  8  1  0  0  0  0
  7113  1  0  0  0  0
  7114  1  0  0  0  0
  8  9  1  0  0  0  0
  8115  1  0  0  0  0
  8116  1  0  0  0  0
  9 10  1  0  0  0  0
  9117  1  0  0  0  0
  9118  1  0  0  0  0
 10 11  1  0  0  0  0
 10119  1  0  0  0  0
 11 12  2  0  0  0  0
 11 13  1  0  0  0  0
 13 14  1  0  0  0  0
 13 42  2  0  0  0  0
 14 15  2  0  0  0  0
 14120  1  0  0  0  0
 15 16  1  0  0  0  0
 15121  1  0  0  0  0
 16 17  1  0  0  0  0
 16 41  2  0  0  0  0
 17 18  1  0  0  0  0
 17 40  1  0  0  0  0
 18 19  2  0  0  0  0
 18122  1  0  0  0  0
 19 20  1  0  0  0  0
 19 39  1  0  0  0  0
 20 21  1  0  0  0  0
 20123  1  0  0  0  0
 20124  1  0  0  0  0
 21 22  1  0  0  0  0
 22 23  2  0  0  0  0
 22 32  1  0  0  0  0
 23 24  1  0  0  0  0
 24 25  1  0  0  0  0
 24 29  2  0  0  0  0
 25 26  2  0  0  0  0
 25125  1  0  0  0  0
 26 27  1  0  0  0  0
 26126  1  0  0  0  0
 27 28  2  0  0  0  0
 27127  1  0  0  0  0
 28 29  1  0  0  0  0
 28128  1  0  0  0  0
 29 30  1  0  0  0  0
 30 31  2  0  0  0  0
 30 32  1  0  0  0  0
 32 33  1  0  0  0  0
 33 34  1  0  0  0  0
 33 38  2  0  0  0  0
 34 35  2  0  0  0  0
 34129  1  0  0  0  0
 35 36  1  0  0  0  0
 35130  1  0  0  0  0
 36 37  2  0  0  0  0
 36131  1  0  0  0  0
 37 38  1  0  0  0  0
 37132  1  0  0  0  0
 38133  1  0  0  0  0
 39 40  2  0  0  0  0
 41 42  1  0  0  0  0
 41134  1  0  0  0  0
 42135  1  0  0  0  0
 43 44  1  0  0  0  0
 43105  2  0  0  0  0
 44 45  2  0  0  0  0
 44136  1  0  0  0  0
 45 46  1  0  0  0  0
 45137  1  0  0  0  0
 46 47  1  0  0  0  0
 46104  2  0  0  0  0
 47 48  1  0  0  0  0
 47 98  2  0  0  0  0
 48 49  2  0  0  0  0
 48103  1  0  0  0  0
 49 50  1  0  0  0  0
 50 51  2  0  0  0  0
 50102  1  0  0  0  0
 51 52  1  0  0  0  0
 51 63  1  0  0  0  0
 52 53  1  0  0  0  0
 52 61  2  0  0  0  0
 53 54  1  0  0  0  0
 53 55  2  0  0  0  0
 55 56  1  0  0  0  0
 55 57  1  0  0  0  0
 57 58  1  0  0  0  0
 57 59  2  0  0  0  0
 59 60  1  0  0  0  0
 59 61  1  0  0  0  0
 61 62  1  0  0  0  0
 63 64  2  0  0  0  0
 63 67  1  0  0  0  0
 64 65  1  0  0  0  0
 64138  1  0  0  0  0
 65 66  2  0  0  0  0
 65139  1  0  0  0  0
 66 67  1  0  0  0  0
 66 68  1  0  0  0  0
 67140  1  0  0  0  0
 68 69  1  0  0  0  0
 68 80  2  0  0  0  0
 69 70  1  0  0  0  0
 69 78  2  0  0  0  0
 70 71  1  0  0  0  0
 70 72  2  0  0  0  0
 72 73  1  0  0  0  0
 72 74  1  0  0  0  0
 74 75  1  0  0  0  0
 74 76  2  0  0  0  0
 76 77  1  0  0  0  0
 76 78  1  0  0  0  0
 78 79  1  0  0  0  0
 80 81  1  0  0  0  0
 80101  1  0  0  0  0
 81 82  2  0  0  0  0
 82 83  1  0  0  0  0
 82100  1  0  0  0  0
 83 84  1  0  0  0  0
 83 95  2  0  0  0  0
 84 85  1  0  0  0  0
 84 93  2  0  0  0  0
 85 86  1  0  0  0  0
 85 87  2  0  0  0  0
 87 88  1  0  0  0  0
 87 89  1  0  0  0  0
 89 90  1  0  0  0  0
 89 91  2  0  0  0  0
 91 92  1  0  0  0  0
 91 93  1  0  0  0  0
 93 94  1  0  0  0  0
 95 96  1  0  0  0  0
 95 99  1  0  0  0  0
 96 97  2  0  0  0  0
 96141  1  0  0  0  0
 97 98  1  0  0  0  0
 97142  1  0  0  0  0
 98 99  1  0  0  0  0
 99143  1  0  0  0  0
100101  2  0  0  0  0
100144  1  0  0  0  0
101145  1  0  0  0  0
102103  2  0  0  0  0
102146  1  0  0  0  0
103147  1  0  0  0  0
104105  1  0  0  0  0
104148  1  0  0  0  0
105149  1  0  0  0  0
M  END
$$$$
