1_1_2398
 OpenBabel01102313203D

133143  0  0  0  0  0  0  0  0999 V2000
    0.7544    0.2408   -0.0464 C   0  0  0  0  0  0  0  0  0  0  0  0
    0.3016   -1.2163    0.1364 C   0  0  1  0  0  0  0  0  0  0  0  0
    0.9200   -1.7645    1.4287 C   0  0  0  0  0  0  0  0  0  0  0  0
    0.3174   -1.8080    2.5030 O   0  0  0  0  0  0  0  0  0  0  0  0
    2.1802   -2.2875    1.4030 N   0  0  0  0  0  0  0  0  0  0  0  0
    3.2737   -1.9652    0.5103 C   0  0  0  0  0  0  0  0  0  0  0  0
    4.2088   -0.9757    1.2117 C   0  0  0  0  0  0  0  0  0  0  0  0
    4.9493   -1.5861    2.4124 C   0  0  0  0  0  0  0  0  0  0  0  0
    5.8806   -2.7514    2.0627 C   0  0  0  0  0  0  0  0  0  0  0  0
    6.9422   -2.4196    1.0140 C   0  0  0  0  0  0  0  0  0  0  0  0
    7.8638   -1.2719    1.4070 C   0  0  0  0  0  0  0  0  0  0  0  0
    8.7042   -1.6132    2.5442 N   0  0  0  0  0  0  0  0  0  0  0  0
   10.0710   -1.5084    2.6619 C   0  0  0  0  0  0  0  0  0  0  0  0
   10.6632   -2.0092    3.6017 O   0  0  0  0  0  0  0  0  0  0  0  0
   10.8155   -0.7887    1.6077 C   0  0  0  0  0  0  0  0  0  0  0  0
   11.9259   -1.3980    1.0196 C   0  0  0  0  0  0  0  0  0  0  0  0
   12.5705   -0.7679   -0.0467 C   0  0  0  0  0  0  0  0  0  0  0  0
   12.0809    0.4490   -0.5464 C   0  0  0  0  0  0  0  0  0  0  0  0
   12.7007    1.1250   -1.7120 C   0  0  0  0  0  0  0  0  0  0  0  0
   13.3188    2.4815   -1.5365 C   0  0  0  0  0  0  0  0  0  0  0  0
   13.7563    3.3189   -2.4414 N   0  0  0  0  0  0  0  0  0  0  0  0
   14.1534    4.4508   -1.7429 C   0  0  0  0  0  0  0  0  0  0  0  0
   14.7256    5.5802   -2.2235 C   0  0  0  0  0  0  0  0  0  0  0  0
   15.0306    6.6719   -1.2382 C   0  0  0  0  0  0  0  0  0  0  0  0
   16.0125    6.5227   -0.2462 C   0  0  0  0  0  0  0  0  0  0  0  0
   16.7067    5.3786   -0.1497 F   0  0  0  0  0  0  0  0  0  0  0  0
   16.2445    7.5267    0.6904 C   0  0  0  0  0  0  0  0  0  0  0  0
   17.1365    7.3315    1.6715 F   0  0  0  0  0  0  0  0  0  0  0  0
   15.5359    8.7165    0.6253 C   0  0  0  0  0  0  0  0  0  0  0  0
   15.7575    9.6804    1.5296 F   0  0  0  0  0  0  0  0  0  0  0  0
   14.5885    8.9019   -0.3699 C   0  0  0  0  0  0  0  0  0  0  0  0
   13.9126   10.0569   -0.4431 F   0  0  0  0  0  0  0  0  0  0  0  0
   14.3281    7.8857   -1.2855 C   0  0  0  0  0  0  0  0  0  0  0  0
   13.3843    8.0863   -2.2175 F   0  0  0  0  0  0  0  0  0  0  0  0
   15.0393    5.7946   -3.6110 C   0  0  0  0  0  0  0  0  0  0  0  0
   15.6917    6.8668   -4.1922 C   0  0  0  0  0  0  0  0  0  0  0  0
   15.7136    6.6651   -5.5760 C   0  0  0  0  0  0  0  0  0  0  0  0
   15.1275    5.4395   -5.8522 C   0  0  0  0  0  0  0  0  0  0  0  0
   14.7141    4.9183   -4.6372 N   0  0  0  0  0  0  0  0  0  0  0  0
   14.9566    4.7949   -7.1308 C   0  0  0  0  0  0  0  0  0  0  0  0
   15.4874    5.5141   -8.3361 C   0  0  0  0  0  0  0  0  0  0  0  0
   14.6350    6.1410   -9.2553 C   0  0  0  0  0  0  0  0  0  0  0  0
   13.3044    6.0255   -9.1299 F   0  0  0  0  0  0  0  0  0  0  0  0
   15.1502    6.8771  -10.3194 C   0  0  0  0  0  0  0  0  0  0  0  0
   14.3183    7.4483  -11.2014 F   0  0  0  0  0  0  0  0  0  0  0  0
   16.5220    7.0216  -10.4684 C   0  0  0  0  0  0  0  0  0  0  0  0
   17.0147    7.7495  -11.4800 F   0  0  0  0  0  0  0  0  0  0  0  0
   17.3829    6.4114   -9.5691 C   0  0  0  0  0  0  0  0  0  0  0  0
   18.7079    6.5622   -9.7019 F   0  0  0  0  0  0  0  0  0  0  0  0
   16.8720    5.6526   -8.5205 C   0  0  0  0  0  0  0  0  0  0  0  0
   17.7288    5.0760   -7.6642 F   0  0  0  0  0  0  0  0  0  0  0  0
   14.3776    3.5845   -7.3233 C   0  0  0  0  0  0  0  0  0  0  0  0
   13.8520    2.7109   -6.3811 N   0  0  0  0  0  0  0  0  0  0  0  0
   13.4132    1.6743   -7.0533 C   0  0  0  0  0  0  0  0  0  0  0  0
   12.7687    0.4168   -6.5378 C   0  0  0  0  0  0  0  0  0  0  0  0
   12.2809   -0.6378   -7.4631 C   0  0  0  0  0  0  0  0  0  0  0  0
   13.1786   -1.4568   -8.1603 C   0  0  0  0  0  0  0  0  0  0  0  0
   14.4989   -1.2530   -8.0436 F   0  0  0  0  0  0  0  0  0  0  0  0
   12.7233   -2.4743   -8.9965 C   0  0  0  0  0  0  0  0  0  0  0  0
   13.6023   -3.2271   -9.6717 F   0  0  0  0  0  0  0  0  0  0  0  0
   11.3627   -2.7073   -9.1328 C   0  0  0  0  0  0  0  0  0  0  0  0
   10.9262   -3.6974   -9.9232 F   0  0  0  0  0  0  0  0  0  0  0  0
   10.4556   -1.9125   -8.4488 C   0  0  0  0  0  0  0  0  0  0  0  0
    9.1409   -2.1450   -8.5635 F   0  0  0  0  0  0  0  0  0  0  0  0
   10.9092   -0.8787   -7.6326 C   0  0  0  0  0  0  0  0  0  0  0  0
   10.0099   -0.1274   -6.9801 F   0  0  0  0  0  0  0  0  0  0  0  0
   12.6389    0.2395   -5.2089 C   0  0  0  0  0  0  0  0  0  0  0  0
   12.0295   -0.9212   -4.5649 C   0  0  0  0  0  0  0  0  0  0  0  0
   11.9840   -0.7131   -3.2395 C   0  0  0  0  0  0  0  0  0  0  0  0
   12.6018    0.5778   -2.9377 C   0  0  0  0  0  0  0  0  0  0  0  0
   12.9901    1.0579   -4.1638 N   0  0  0  0  0  0  0  0  0  0  0  0
   13.5862    1.7867   -8.5082 C   0  0  0  0  0  0  0  0  0  0  0  0
   14.2044    2.9557   -8.6167 C   0  0  0  0  0  0  0  0  0  0  0  0
   13.8602    4.2123   -0.3463 C   0  0  0  0  0  0  0  0  0  0  0  0
   13.4204    2.9783   -0.1556 C   0  0  0  0  0  0  0  0  0  0  0  0
   10.9804    1.0604    0.0765 C   0  0  0  0  0  0  0  0  0  0  0  0
   10.3836    0.4700    1.1825 C   0  0  0  0  0  0  0  0  0  0  0  0
   -1.2214   -1.4289    0.1305 C   0  0  0  0  0  0  0  0  0  0  0  0
   -2.0944   -0.3281    0.2590 C   0  0  0  0  0  0  0  0  0  0  0  0
   -3.4790   -0.4932    0.3056 C   0  0  0  0  0  0  0  0  0  0  0  0
   -4.0290   -1.7651    0.2430 C   0  0  0  0  0  0  0  0  0  0  0  0
   -3.1942   -2.8727    0.1129 C   0  0  0  0  0  0  0  0  0  0  0  0
   -1.7955   -2.7255    0.0390 C   0  0  0  0  0  0  0  0  0  0  0  0
   -1.0047   -3.9650   -0.1518 C   0  0  0  0  0  0  0  0  0  0  0  0
   -0.2660   -4.6199    0.9101 C   0  0  0  0  0  0  0  0  0  0  0  0
    0.5109   -5.6779    0.6502 C   0  0  0  0  0  0  0  0  0  0  0  0
    0.5715   -6.2193   -0.6200 N   0  0  0  0  0  0  0  0  0  0  0  0
    1.4182   -7.3512   -0.8939 C   0  0  0  0  0  0  0  0  0  0  0  0
    0.6846   -8.4574   -1.1630 F   0  0  0  0  0  0  0  0  0  0  0  0
    2.2259   -7.1123   -1.9570 F   0  0  0  0  0  0  0  0  0  0  0  0
   -0.2127   -5.7507   -1.6618 C   0  0  0  0  0  0  0  0  0  0  0  0
   -0.2813   -6.2451   -2.7823 O   0  0  0  0  0  0  0  0  0  0  0  0
   -1.0073   -4.5238   -1.3750 C   0  0  0  0  0  0  0  0  0  0  0  0
    1.8233    0.2870   -0.0286 H   0  0  0  0  0  0  0  0  0  0  0  0
    0.3583    0.8396    0.7470 H   0  0  0  0  0  0  0  0  0  0  0  0
    0.3970    0.6103   -0.9848 H   0  0  0  0  0  0  0  0  0  0  0  0
    0.6498   -1.7549   -0.7201 H   0  0  0  0  0  0  0  0  0  0  0  0
    2.3711   -2.9750    2.0813 H   0  0  0  0  0  0  0  0  0  0  0  0
    2.8887   -1.5233   -0.3849 H   0  0  0  0  0  0  0  0  0  0  0  0
    3.8106   -2.8555    0.2571 H   0  0  0  0  0  0  0  0  0  0  0  0
    3.6281   -0.1459    1.5568 H   0  0  0  0  0  0  0  0  0  0  0  0
    4.9501   -0.6802    0.4989 H   0  0  0  0  0  0  0  0  0  0  0  0
    4.2192   -1.9402    3.1098 H   0  0  0  0  0  0  0  0  0  0  0  0
    5.5700   -0.8113    2.8114 H   0  0  0  0  0  0  0  0  0  0  0  0
    5.2830   -3.5571    1.6904 H   0  0  0  0  0  0  0  0  0  0  0  0
    6.4064   -3.0017    2.9604 H   0  0  0  0  0  0  0  0  0  0  0  0
    6.4452   -2.1556    0.1040 H   0  0  0  0  0  0  0  0  0  0  0  0
    7.5573   -3.2890    0.9102 H   0  0  0  0  0  0  0  0  0  0  0  0
    7.2669   -0.4211    1.6615 H   0  0  0  0  0  0  0  0  0  0  0  0
    8.5028   -1.0613    0.5750 H   0  0  0  0  0  0  0  0  0  0  0  0
    8.2329   -1.9656    3.3335 H   0  0  0  0  0  0  0  0  0  0  0  0
   12.2673   -2.3066    1.3702 H   0  0  0  0  0  0  0  0  0  0  0  0
   13.4086   -1.1978   -0.4683 H   0  0  0  0  0  0  0  0  0  0  0  0
   16.0927    7.6753   -3.6917 H   0  0  0  0  0  0  0  0  0  0  0  0
   16.1010    7.3189   -6.2742 H   0  0  0  0  0  0  0  0  0  0  0  0
   14.2573    4.0543   -4.5190 H   0  0  0  0  0  0  0  0  0  0  0  0
   11.6887   -1.7655   -5.0507 H   0  0  0  0  0  0  0  0  0  0  0  0
   11.5783   -1.3599   -2.5452 H   0  0  0  0  0  0  0  0  0  0  0  0
   13.4738    1.9072   -4.2823 H   0  0  0  0  0  0  0  0  0  0  0  0
   13.3016    1.1290   -9.2508 H   0  0  0  0  0  0  0  0  0  0  0  0
   14.5216    3.3650   -9.5094 H   0  0  0  0  0  0  0  0  0  0  0  0
   13.9784    4.9122    0.4028 H   0  0  0  0  0  0  0  0  0  0  0  0
   13.2054    2.4926    0.7292 H   0  0  0  0  0  0  0  0  0  0  0  0
   10.6136    1.9528   -0.2897 H   0  0  0  0  0  0  0  0  0  0  0  0
    9.6265    0.9574    1.6867 H   0  0  0  0  0  0  0  0  0  0  0  0
   -1.6989    0.6231    0.3201 H   0  0  0  0  0  0  0  0  0  0  0  0
   -4.0943    0.3313    0.3867 H   0  0  0  0  0  0  0  0  0  0  0  0
   -5.0522   -1.8903    0.2926 H   0  0  0  0  0  0  0  0  0  0  0  0
   -3.6078   -3.8172    0.0699 H   0  0  0  0  0  0  0  0  0  0  0  0
   -0.3402   -4.2663    1.8768 H   0  0  0  0  0  0  0  0  0  0  0  0
    1.0726   -6.0954    1.4087 H   0  0  0  0  0  0  0  0  0  0  0  0
    2.0096   -7.5123   -0.0168 H   0  0  0  0  0  0  0  0  0  0  0  0
   -1.5690   -4.0956   -2.1274 H   0  0  0  0  0  0  0  0  0  0  0  0
  1  2  1  0  0  0  0
  1 94  1  0  0  0  0
  1 95  1  0  0  0  0
  1 96  1  0  0  0  0
  2  3  1  0  0  0  0
  2 78  1  0  0  0  0
  2 97  1  6  0  0  0
  3  4  2  0  0  0  0
  3  5  1  0  0  0  0
  5  6  1  0  0  0  0
  5 98  1  0  0  0  0
  6  7  1  0  0  0  0
  6 99  1  0  0  0  0
  6100  1  0  0  0  0
  7  8  1  0  0  0  0
  7101  1  0  0  0  0
  7102  1  0  0  0  0
  8  9  1  0  0  0  0
  8103  1  0  0  0  0
  8104  1  0  0  0  0
  9 10  1  0  0  0  0
  9105  1  0  0  0  0
  9106  1  0  0  0  0
 10 11  1  0  0  0  0
 10107  1  0  0  0  0
 10108  1  0  0  0  0
 11 12  1  0  0  0  0
 11109  1  0  0  0  0
 11110  1  0  0  0  0
 12 13  1  0  0  0  0
 12111  1  0  0  0  0
 13 14  2  0  0  0  0
 13 15  1  0  0  0  0
 15 16  1  0  0  0  0
 15 77  2  0  0  0  0
 16 17  2  0  0  0  0
 16112  1  0  0  0  0
 17 18  1  0  0  0  0
 17113  1  0  0  0  0
 18 19  1  0  0  0  0
 18 76  2  0  0  0  0
 19 20  1  0  0  0  0
 19 70  2  0  0  0  0
 20 21  2  0  0  0  0
 20 75  1  0  0  0  0
 21 22  1  0  0  0  0
 22 23  2  0  0  0  0
 22 74  1  0  0  0  0
 23 24  1  0  0  0  0
 23 35  1  0  0  0  0
 24 25  1  0  0  0  0
 24 33  2  0  0  0  0
 25 26  1  0  0  0  0
 25 27  2  0  0  0  0
 27 28  1  0  0  0  0
 27 29  1  0  0  0  0
 29 30  1  0  0  0  0
 29 31  2  0  0  0  0
 31 32  1  0  0  0  0
 31 33  1  0  0  0  0
 33 34  1  0  0  0  0
 35 36  2  0  0  0  0
 35 39  1  0  0  0  0
 36 37  1  0  0  0  0
 36114  1  0  0  0  0
 37 38  2  0  0  0  0
 37115  1  0  0  0  0
 38 39  1  0  0  0  0
 38 40  1  0  0  0  0
 39116  1  0  0  0  0
 40 41  1  0  0  0  0
 40 52  2  0  0  0  0
 41 42  1  0  0  0  0
 41 50  2  0  0  0  0
 42 43  1  0  0  0  0
 42 44  2  0  0  0  0
 44 45  1  0  0  0  0
 44 46  1  0  0  0  0
 46 47  1  0  0  0  0
 46 48  2  0  0  0  0
 48 49  1  0  0  0  0
 48 50  1  0  0  0  0
 50 51  1  0  0  0  0
 52 53  1  0  0  0  0
 52 73  1  0  0  0  0
 53 54  2  0  0  0  0
 54 55  1  0  0  0  0
 54 72  1  0  0  0  0
 55 56  1  0  0  0  0
 55 67  2  0  0  0  0
 56 57  1  0  0  0  0
 56 65  2  0  0  0  0
 57 58  1  0  0  0  0
 57 59  2  0  0  0  0
 59 60  1  0  0  0  0
 59 61  1  0  0  0  0
 61 62  1  0  0  0  0
 61 63  2  0  0  0  0
 63 64  1  0  0  0  0
 63 65  1  0  0  0  0
 65 66  1  0  0  0  0
 67 68  1  0  0  0  0
 67 71  1  0  0  0  0
 68 69  2  0  0  0  0
 68117  1  0  0  0  0
 69 70  1  0  0  0  0
 69118  1  0  0  0  0
 70 71  1  0  0  0  0
 71119  1  0  0  0  0
 72 73  2  0  0  0  0
 72120  1  0  0  0  0
 73121  1  0  0  0  0
 74 75  2  0  0  0  0
 74122  1  0  0  0  0
 75123  1  0  0  0  0
 76 77  1  0  0  0  0
 76124  1  0  0  0  0
 77125  1  0  0  0  0
 78 79  1  0  0  0  0
 78 83  2  0  0  0  0
 79 80  2  0  0  0  0
 79126  1  0  0  0  0
 80 81  1  0  0  0  0
 80127  1  0  0  0  0
 81 82  2  0  0  0  0
 81128  1  0  0  0  0
 82 83  1  0  0  0  0
 82129  1  0  0  0  0
 83 84  1  0  0  0  0
 84 85  1  0  0  0  0
 84 93  2  0  0  0  0
 85 86  2  0  0  0  0
 85130  1  0  0  0  0
 86 87  1  0  0  0  0
 86131  1  0  0  0  0
 87 88  1  0  0  0  0
 87 91  1  0  0  0  0
 88 89  1  0  0  0  0
 88 90  1  0  0  0  0
 88132  1  0  0  0  0
 91 92  2  0  0  0  0
 91 93  1  0  0  0  0
 93133  1  0  0  0  0
M  END
$$$$
