1_1_3664
 OpenBabel01102313223D

149160  0  0  1  0  0  0  0  0999 V2000
    7.6667  -12.2304  -16.9921 O   0  0  0  0  0  0  0  0  0  0  0  0
    7.8621  -12.6467  -15.8545 C   0  0  0  0  0  0  0  0  0  0  0  0
    8.4544  -11.8441  -14.9089 N   0  0  0  0  0  0  0  0  0  0  0  0
    8.8395  -12.1777  -13.5499 C   0  0  0  0  0  0  0  0  0  0  0  0
   10.2122  -11.6534  -13.1550 C   0  0  0  0  0  0  0  0  0  0  0  0
   10.3868  -10.1369  -13.2078 C   0  0  0  0  0  0  0  0  0  0  0  0
    9.3064   -9.3061  -12.5102 C   0  0  0  0  0  0  0  0  0  0  0  0
    8.9811   -9.6850  -11.0614 C   0  0  0  0  0  0  0  0  0  0  0  0
   10.1740   -9.7494  -10.1171 C   0  0  0  0  0  0  0  0  0  0  0  0
   10.8107   -8.4633   -9.9478 N   0  0  0  0  0  0  0  0  0  0  0  0
   11.4786   -7.9347   -8.8881 C   0  0  0  0  0  0  0  0  0  0  0  0
   11.8787   -6.7742   -9.0113 O   0  0  0  0  0  0  0  0  0  0  0  0
   11.6600   -8.6930   -7.5631 C   0  0  2  0  0  0  0  0  0  0  0  0
   12.2681  -10.0976   -7.7004 C   0  0  0  0  0  0  0  0  0  0  0  0
   13.6513  -10.0614   -8.0346 O   0  0  0  0  0  0  0  0  0  0  0  0
   10.3930   -8.7071   -6.8288 N   0  0  0  0  0  0  0  0  0  0  0  0
    9.9756   -8.0885   -5.6912 C   0  0  0  0  0  0  0  0  0  0  0  0
    8.8215   -8.3798   -5.3535 O   0  0  0  0  0  0  0  0  0  0  0  0
   10.9085   -7.2790   -4.7478 C   0  0  2  0  0  0  0  0  0  0  0  0
   10.0833   -6.4487   -3.7410 C   0  0  0  0  0  0  0  0  0  0  0  0
    9.5315   -5.0993   -4.1365 C   0  0  0  0  0  0  0  0  0  0  0  0
    9.2660   -4.1182   -3.1927 C   0  0  0  0  0  0  0  0  0  0  0  0
    8.7555   -3.0211   -3.8202 N   0  0  0  0  0  0  0  0  0  0  0  0
    8.6674   -3.2487   -5.1700 C   0  0  0  0  0  0  0  0  0  0  0  0
    8.2033   -2.3960   -6.1810 C   0  0  0  0  0  0  0  0  0  0  0  0
    8.2210   -2.8681   -7.4926 C   0  0  0  0  0  0  0  0  0  0  0  0
    8.6801   -4.1476   -7.7756 C   0  0  0  0  0  0  0  0  0  0  0  0
    9.1316   -4.9895   -6.7496 C   0  0  0  0  0  0  0  0  0  0  0  0
    9.1390   -4.5452   -5.4086 C   0  0  0  0  0  0  0  0  0  0  0  0
   11.9702   -6.4754   -5.3543 N   0  0  0  0  0  0  0  0  0  0  0  0
   13.3371   -6.4787   -5.2620 C   0  0  0  0  0  0  0  0  0  0  0  0
   13.9254   -5.4821   -5.6858 O   0  0  0  0  0  0  0  0  0  0  0  0
   14.1619   -7.6122   -4.7402 C   0  0  0  0  0  0  0  0  0  0  0  0
   13.7403   -8.9450   -4.6668 C   0  0  0  0  0  0  0  0  0  0  0  0
   14.6309   -9.9640   -4.3090 C   0  0  0  0  0  0  0  0  0  0  0  0
   15.9537   -9.6558   -4.0286 C   0  0  0  0  0  0  0  0  0  0  0  0
   16.8088  -10.6375   -3.7164 F   0  0  0  0  0  0  0  0  0  0  0  0
   16.4021   -8.3451   -4.0897 C   0  0  0  0  0  0  0  0  0  0  0  0
   15.5094   -7.3290   -4.4444 C   0  0  0  0  0  0  0  0  0  0  0  0
    7.5016  -14.0380  -15.5052 C   0  0  0  0  0  0  0  0  0  0  0  0
    6.8279  -14.3262  -14.3163 C   0  0  0  0  0  0  0  0  0  0  0  0
    6.6702  -15.6487  -13.9187 C   0  0  0  0  0  0  0  0  0  0  0  0
    7.0686  -16.7002  -14.7619 C   0  0  0  0  0  0  0  0  0  0  0  0
    6.8378  -18.1019  -14.3304 C   0  0  0  0  0  0  0  0  0  0  0  0
    7.9850  -19.0308  -14.0502 C   0  0  0  0  0  0  0  0  0  0  0  0
    7.9563  -20.2701  -13.6259 N   0  0  0  0  0  0  0  0  0  0  0  0
    9.2808  -20.6801  -13.5545 C   0  0  0  0  0  0  0  0  0  0  0  0
    9.7728  -21.8736  -13.1429 C   0  0  0  0  0  0  0  0  0  0  0  0
   11.2614  -22.0653  -13.1760 C   0  0  0  0  0  0  0  0  0  0  0  0
   11.8468  -22.9361  -14.1081 C   0  0  0  0  0  0  0  0  0  0  0  0
   11.0855  -23.5669  -15.0148 F   0  0  0  0  0  0  0  0  0  0  0  0
   13.2184  -23.1773  -14.1020 C   0  0  0  0  0  0  0  0  0  0  0  0
   13.7513  -24.0329  -14.9854 F   0  0  0  0  0  0  0  0  0  0  0  0
   14.0332  -22.5372  -13.1807 C   0  0  0  0  0  0  0  0  0  0  0  0
   15.3547  -22.7606  -13.1834 F   0  0  0  0  0  0  0  0  0  0  0  0
   13.4782  -21.6618  -12.2592 C   0  0  0  0  0  0  0  0  0  0  0  0
   14.2671  -21.0248  -11.3827 F   0  0  0  0  0  0  0  0  0  0  0  0
   12.1034  -21.4375  -12.2465 C   0  0  0  0  0  0  0  0  0  0  0  0
   11.5951  -20.5869  -11.3421 F   0  0  0  0  0  0  0  0  0  0  0  0
    8.9623  -22.9722  -12.6826 C   0  0  0  0  0  0  0  0  0  0  0  0
    9.3703  -24.2161  -12.2319 C   0  0  0  0  0  0  0  0  0  0  0  0
    8.2310  -24.9662  -11.9227 C   0  0  0  0  0  0  0  0  0  0  0  0
    7.1140  -24.1749  -12.1366 C   0  0  0  0  0  0  0  0  0  0  0  0
    7.5765  -22.9575  -12.6114 N   0  0  0  0  0  0  0  0  0  0  0  0
    5.7283  -24.5063  -11.9220 C   0  0  0  0  0  0  0  0  0  0  0  0
    5.4146  -25.8748  -11.3966 C   0  0  0  0  0  0  0  0  0  0  0  0
    5.7195  -26.2145  -10.0702 C   0  0  0  0  0  0  0  0  0  0  0  0
    6.2519  -25.3017   -9.2438 F   0  0  0  0  0  0  0  0  0  0  0  0
    5.4931  -27.5016   -9.5919 C   0  0  0  0  0  0  0  0  0  0  0  0
    5.8143  -27.8114   -8.3282 F   0  0  0  0  0  0  0  0  0  0  0  0
    4.9386  -28.4645  -10.4219 C   0  0  0  0  0  0  0  0  0  0  0  0
    4.7090  -29.6999   -9.9562 F   0  0  0  0  0  0  0  0  0  0  0  0
    4.6172  -28.1456  -11.7332 C   0  0  0  0  0  0  0  0  0  0  0  0
    4.0598  -29.0686  -12.5290 F   0  0  0  0  0  0  0  0  0  0  0  0
    4.8649  -26.8660  -12.2221 C   0  0  0  0  0  0  0  0  0  0  0  0
    4.5438  -26.5836  -13.4936 F   0  0  0  0  0  0  0  0  0  0  0  0
    4.6834  -23.6731  -12.1457 C   0  0  0  0  0  0  0  0  0  0  0  0
    4.6979  -22.3708  -12.6216 N   0  0  0  0  0  0  0  0  0  0  0  0
    3.4434  -21.9989  -12.6895 C   0  0  0  0  0  0  0  0  0  0  0  0
    2.8727  -20.6852  -13.1345 C   0  0  0  0  0  0  0  0  0  0  0  0
    1.4144  -20.4153  -13.0919 C   0  0  0  0  0  0  0  0  0  0  0  0
    0.6666  -20.2717  -14.2699 C   0  0  0  0  0  0  0  0  0  0  0  0
    1.2567  -20.4344  -15.4632 F   0  0  0  0  0  0  0  0  0  0  0  0
   -0.6796  -19.9189  -14.2275 C   0  0  0  0  0  0  0  0  0  0  0  0
   -1.3597  -19.7413  -15.3682 F   0  0  0  0  0  0  0  0  0  0  0  0
   -1.3111  -19.7339  -13.0069 C   0  0  0  0  0  0  0  0  0  0  0  0
   -2.6064  -19.3942  -12.9660 F   0  0  0  0  0  0  0  0  0  0  0  0
   -0.5975  -19.8983  -11.8286 C   0  0  0  0  0  0  0  0  0  0  0  0
   -1.2090  -19.7370  -10.6474 F   0  0  0  0  0  0  0  0  0  0  0  0
    0.7557  -20.2261  -11.8704 C   0  0  0  0  0  0  0  0  0  0  0  0
    1.4276  -20.3679  -10.7184 F   0  0  0  0  0  0  0  0  0  0  0  0
    3.7056  -19.7184  -13.5612 C   0  0  0  0  0  0  0  0  0  0  0  0
    3.2921  -18.3963  -14.0196 C   0  0  0  0  0  0  0  0  0  0  0  0
    4.3782  -17.7064  -14.3937 C   0  0  0  0  0  0  0  0  0  0  0  0
    5.5708  -18.5182  -14.1449 C   0  0  0  0  0  0  0  0  0  0  0  0
    5.0732  -19.7077  -13.6792 N   0  0  0  0  0  0  0  0  0  0  0  0
    2.4849  -23.0286  -12.2682 C   0  0  0  0  0  0  0  0  0  0  0  0
    3.2946  -24.0199  -11.9199 C   0  0  0  0  0  0  0  0  0  0  0  0
   10.0908  -19.5673  -14.0024 C   0  0  0  0  0  0  0  0  0  0  0  0
    9.3406  -18.5090  -14.2796 C   0  0  0  0  0  0  0  0  0  0  0  0
    7.6384  -16.3992  -16.0079 C   0  0  0  0  0  0  0  0  0  0  0  0
    7.8768  -15.0706  -16.3691 C   0  0  0  0  0  0  0  0  0  0  0  0
    8.6425  -10.9198  -15.1910 H   0  0  0  0  0  0  0  0  0  0  0  0
    8.8444  -13.2432  -13.4525 H   0  0  0  0  0  0  0  0  0  0  0  0
    8.1286  -11.7107  -12.9007 H   0  0  0  0  0  0  0  0  0  0  0  0
   10.9323  -12.0896  -13.8153 H   0  0  0  0  0  0  0  0  0  0  0  0
   10.3416  -11.9245  -12.1280 H   0  0  0  0  0  0  0  0  0  0  0  0
   10.4075   -9.8466  -14.2375 H   0  0  0  0  0  0  0  0  0  0  0  0
   11.2919   -9.9347  -12.6741 H   0  0  0  0  0  0  0  0  0  0  0  0
    8.4059   -9.3993  -13.0805 H   0  0  0  0  0  0  0  0  0  0  0  0
    9.7009   -8.3127  -12.4612 H   0  0  0  0  0  0  0  0  0  0  0  0
    8.5145  -10.6479  -11.0693 H   0  0  0  0  0  0  0  0  0  0  0  0
    8.3523   -8.9041  -10.6876 H   0  0  0  0  0  0  0  0  0  0  0  0
   10.8902  -10.4381  -10.5142 H   0  0  0  0  0  0  0  0  0  0  0  0
    9.8162  -10.0656   -9.1596 H   0  0  0  0  0  0  0  0  0  0  0  0
   10.7508   -7.8703  -10.7314 H   0  0  0  0  0  0  0  0  0  0  0  0
   12.3943   -8.1550   -7.0008 H   0  0  0  0  0  0  0  0  0  0  0  0
   11.7429  -10.6255   -8.4688 H   0  0  0  0  0  0  0  0  0  0  0  0
   12.1747  -10.5868   -6.7534 H   0  0  0  0  0  0  0  0  0  0  0  0
   13.7655   -9.6217   -8.8916 H   0  0  0  0  0  0  0  0  0  0  0  0
    9.7055   -9.2788   -7.2409 H   0  0  0  0  0  0  0  0  0  0  0  0
   11.4624   -8.0456   -4.2475 H   0  0  0  0  0  0  0  0  0  0  0  0
   10.7104   -6.2867   -2.8893 H   0  0  0  0  0  0  0  0  0  0  0  0
    9.2023   -7.0401   -3.6035 H   0  0  0  0  0  0  0  0  0  0  0  0
    9.4290   -4.2050   -2.1774 H   0  0  0  0  0  0  0  0  0  0  0  0
    8.4889   -2.1870   -3.3703 H   0  0  0  0  0  0  0  0  0  0  0  0
    7.8592   -1.4482   -5.9613 H   0  0  0  0  0  0  0  0  0  0  0  0
    7.8902   -2.2617   -8.2594 H   0  0  0  0  0  0  0  0  0  0  0  0
    8.6890   -4.4824   -8.7517 H   0  0  0  0  0  0  0  0  0  0  0  0
    9.4611   -5.9410   -6.9756 H   0  0  0  0  0  0  0  0  0  0  0  0
   11.6274   -5.7804   -5.9615 H   0  0  0  0  0  0  0  0  0  0  0  0
   12.7582   -9.1799   -4.8797 H   0  0  0  0  0  0  0  0  0  0  0  0
   14.3042  -10.9414   -4.2541 H   0  0  0  0  0  0  0  0  0  0  0  0
   17.3865   -8.1214   -3.8752 H   0  0  0  0  0  0  0  0  0  0  0  0
   15.8440   -6.3538   -4.4903 H   0  0  0  0  0  0  0  0  0  0  0  0
    6.4492  -13.5614  -13.7361 H   0  0  0  0  0  0  0  0  0  0  0  0
    6.2572  -15.8602  -12.9969 H   0  0  0  0  0  0  0  0  0  0  0  0
   10.3474  -24.5351  -12.1399 H   0  0  0  0  0  0  0  0  0  0  0  0
    8.2236  -25.9435  -11.5914 H   0  0  0  0  0  0  0  0  0  0  0  0
    7.0061  -22.1950  -12.8612 H   0  0  0  0  0  0  0  0  0  0  0  0
    2.3208  -18.0489  -14.0507 H   0  0  0  0  0  0  0  0  0  0  0  0
    4.3746  -16.7549  -14.7933 H   0  0  0  0  0  0  0  0  0  0  0  0
    5.6412  -20.4789  -13.4516 H   0  0  0  0  0  0  0  0  0  0  0  0
    1.4538  -22.9910  -12.2483 H   0  0  0  0  0  0  0  0  0  0  0  0
    2.9759  -24.9236  -11.5367 H   0  0  0  0  0  0  0  0  0  0  0  0
   11.1184  -19.5938  -14.0942 H   0  0  0  0  0  0  0  0  0  0  0  0
    9.6323  -17.5653  -14.5784 H   0  0  0  0  0  0  0  0  0  0  0  0
    7.8822  -17.1612  -16.6597 H   0  0  0  0  0  0  0  0  0  0  0  0
    8.3285  -14.8525  -17.2710 H   0  0  0  0  0  0  0  0  0  0  0  0
  1  2  2  0  0  0  0
  2  3  1  0  0  0  0
  2 40  1  0  0  0  0
  3  4  1  0  0  0  0
  3103  1  0  0  0  0
  4  5  1  0  0  0  0
  4104  1  0  0  0  0
  4105  1  0  0  0  0
  5  6  1  0  0  0  0
  5106  1  0  0  0  0
  5107  1  0  0  0  0
  6  7  1  0  0  0  0
  6108  1  0  0  0  0
  6109  1  0  0  0  0
  7  8  1  0  0  0  0
  7110  1  0  0  0  0
  7111  1  0  0  0  0
  8  9  1  0  0  0  0
  8112  1  0  0  0  0
  8113  1  0  0  0  0
  9 10  1  0  0  0  0
  9114  1  0  0  0  0
  9115  1  0  0  0  0
 10 11  1  0  0  0  0
 10116  1  0  0  0  0
 11 12  2  0  0  0  0
 13 16  1  0  0  0  0
 13 14  1  0  0  0  0
 13 11  1  0  0  0  0
 13117  1  1  0  0  0
 14 15  1  0  0  0  0
 14118  1  0  0  0  0
 14119  1  0  0  0  0
 15120  1  0  0  0  0
 16 17  1  0  0  0  0
 16121  1  0  0  0  0
 17 18  2  0  0  0  0
 19 30  1  0  0  0  0
 19 20  1  0  0  0  0
 19 17  1  0  0  0  0
 19122  1  1  0  0  0
 20 21  1  0  0  0  0
 20123  1  0  0  0  0
 20124  1  0  0  0  0
 21 22  2  0  0  0  0
 21 29  1  0  0  0  0
 22 23  1  0  0  0  0
 22125  1  0  0  0  0
 23 24  1  0  0  0  0
 23126  1  0  0  0  0
 24 25  1  0  0  0  0
 24 29  2  0  0  0  0
 25 26  2  0  0  0  0
 25127  1  0  0  0  0
 26 27  1  0  0  0  0
 26128  1  0  0  0  0
 27 28  2  0  0  0  0
 27129  1  0  0  0  0
 28 29  1  0  0  0  0
 28130  1  0  0  0  0
 30 31  1  0  0  0  0
 30131  1  0  0  0  0
 31 32  2  0  0  0  0
 31 33  1  0  0  0  0
 33 34  1  0  0  0  0
 33 39  2  0  0  0  0
 34 35  2  0  0  0  0
 34132  1  0  0  0  0
 35 36  1  0  0  0  0
 35133  1  0  0  0  0
 36 37  1  0  0  0  0
 36 38  2  0  0  0  0
 38 39  1  0  0  0  0
 38134  1  0  0  0  0
 39135  1  0  0  0  0
 40 41  1  0  0  0  0
 40102  2  0  0  0  0
 41 42  2  0  0  0  0
 41136  1  0  0  0  0
 42 43  1  0  0  0  0
 42137  1  0  0  0  0
 43 44  1  0  0  0  0
 43101  2  0  0  0  0
 44 45  1  0  0  0  0
 44 95  2  0  0  0  0
 45 46  2  0  0  0  0
 45100  1  0  0  0  0
 46 47  1  0  0  0  0
 47 48  2  0  0  0  0
 47 99  1  0  0  0  0
 48 49  1  0  0  0  0
 48 60  1  0  0  0  0
 49 50  1  0  0  0  0
 49 58  2  0  0  0  0
 50 51  1  0  0  0  0
 50 52  2  0  0  0  0
 52 53  1  0  0  0  0
 52 54  1  0  0  0  0
 54 55  1  0  0  0  0
 54 56  2  0  0  0  0
 56 57  1  0  0  0  0
 56 58  1  0  0  0  0
 58 59  1  0  0  0  0
 60 61  2  0  0  0  0
 60 64  1  0  0  0  0
 61 62  1  0  0  0  0
 61138  1  0  0  0  0
 62 63  2  0  0  0  0
 62139  1  0  0  0  0
 63 64  1  0  0  0  0
 63 65  1  0  0  0  0
 64140  1  0  0  0  0
 65 66  1  0  0  0  0
 65 77  2  0  0  0  0
 66 67  1  0  0  0  0
 66 75  2  0  0  0  0
 67 68  1  0  0  0  0
 67 69  2  0  0  0  0
 69 70  1  0  0  0  0
 69 71  1  0  0  0  0
 71 72  1  0  0  0  0
 71 73  2  0  0  0  0
 73 74  1  0  0  0  0
 73 75  1  0  0  0  0
 75 76  1  0  0  0  0
 77 78  1  0  0  0  0
 77 98  1  0  0  0  0
 78 79  2  0  0  0  0
 79 80  1  0  0  0  0
 79 97  1  0  0  0  0
 80 81  1  0  0  0  0
 80 92  2  0  0  0  0
 81 82  1  0  0  0  0
 81 90  2  0  0  0  0
 82 83  1  0  0  0  0
 82 84  2  0  0  0  0
 84 85  1  0  0  0  0
 84 86  1  0  0  0  0
 86 87  1  0  0  0  0
 86 88  2  0  0  0  0
 88 89  1  0  0  0  0
 88 90  1  0  0  0  0
 90 91  1  0  0  0  0
 92 93  1  0  0  0  0
 92 96  1  0  0  0  0
 93 94  2  0  0  0  0
 93141  1  0  0  0  0
 94 95  1  0  0  0  0
 94142  1  0  0  0  0
 95 96  1  0  0  0  0
 96143  1  0  0  0  0
 97 98  2  0  0  0  0
 97144  1  0  0  0  0
 98145  1  0  0  0  0
 99100  2  0  0  0  0
 99146  1  0  0  0  0
100147  1  0  0  0  0
101102  1  0  0  0  0
101148  1  0  0  0  0
102149  1  0  0  0  0
M  END
$$$$
