1_1_3299
 OpenBabel01102313213D

138149  0  0  0  0  0  0  0  0999 V2000
    1.0524   -0.3110    0.1743 C   0  0  0  0  0  0  0  0  0  0  0  0
    0.2759   -0.1536    1.7605 S   0  0  0  0  0  0  0  0  0  0  0  0
    0.9358    0.9352    2.4516 O   0  0  0  0  0  0  0  0  0  0  0  0
   -1.1632   -0.1608    1.5692 O   0  0  0  0  0  0  0  0  0  0  0  0
    0.6838   -1.6560    2.6186 C   0  0  0  0  0  0  0  0  0  0  0  0
    0.3579   -2.8876    2.0504 C   0  0  0  0  0  0  0  0  0  0  0  0
    0.6676   -4.0649    2.7379 C   0  0  0  0  0  0  0  0  0  0  0  0
    1.3008   -4.0290    3.9938 C   0  0  0  0  0  0  0  0  0  0  0  0
    1.6283   -5.2713    4.7164 C   0  0  0  0  0  0  0  0  0  0  0  0
    0.9929   -5.5570    5.9368 C   0  0  0  0  0  0  0  0  0  0  0  0
    1.2885   -6.7307    6.6209 C   0  0  0  0  0  0  0  0  0  0  0  0
    0.5316   -7.0822    8.1196 Cl  0  0  0  0  0  0  0  0  0  0  0  0
    2.2074   -7.6029    6.0656 C   0  0  0  0  0  0  0  0  0  0  0  0
    2.8495   -7.3730    4.8958 N   0  0  0  0  0  0  0  0  0  0  0  0
    2.5659   -6.2143    4.2439 C   0  0  0  0  0  0  0  0  0  0  0  0
    3.3510   -6.0067    3.0270 C   0  0  0  0  0  0  0  0  0  0  0  0
    4.4232   -5.1108    2.9857 C   0  0  0  0  0  0  0  0  0  0  0  0
    5.1084   -4.8878    1.7895 C   0  0  0  0  0  0  0  0  0  0  0  0
    4.6651   -5.5192    0.6351 C   0  0  0  0  0  0  0  0  0  0  0  0
    5.2552   -5.2823   -0.7283 C   0  0  0  0  0  0  0  0  0  0  0  0
    5.2398   -6.1803   -1.5721 O   0  0  0  0  0  0  0  0  0  0  0  0
    5.7902   -4.0771   -1.1261 N   0  0  0  0  0  0  0  0  0  0  0  0
    5.9702   -2.8086   -0.4490 C   0  0  0  0  0  0  0  0  0  0  0  0
    7.4336   -2.6281   -0.0381 C   0  0  0  0  0  0  0  0  0  0  0  0
    8.3496   -2.1991   -1.1933 C   0  0  0  0  0  0  0  0  0  0  0  0
    8.0339   -0.8261   -1.8003 C   0  0  0  0  0  0  0  0  0  0  0  0
    7.9674    0.3314   -0.7998 C   0  0  0  0  0  0  0  0  0  0  0  0
    9.2583    0.5770   -0.0238 C   0  0  0  0  0  0  0  0  0  0  0  0
   10.3362    1.0239   -0.8903 N   0  0  0  0  0  0  0  0  0  0  0  0
   11.1350    2.1342   -0.7844 C   0  0  0  0  0  0  0  0  0  0  0  0
   11.8597    2.4641   -1.7180 O   0  0  0  0  0  0  0  0  0  0  0  0
   11.1182    2.9457    0.4516 C   0  0  0  0  0  0  0  0  0  0  0  0
   11.0938    4.3391    0.3433 C   0  0  0  0  0  0  0  0  0  0  0  0
   11.0684    5.1245    1.4977 C   0  0  0  0  0  0  0  0  0  0  0  0
   11.0381    4.5205    2.7648 C   0  0  0  0  0  0  0  0  0  0  0  0
   10.9820    5.3373    4.0024 C   0  0  0  0  0  0  0  0  0  0  0  0
   12.1433    5.3401    4.9562 C   0  0  0  0  0  0  0  0  0  0  0  0
   12.2586    5.9283    6.1203 N   0  0  0  0  0  0  0  0  0  0  0  0
   13.5106    5.5704    6.6020 C   0  0  0  0  0  0  0  0  0  0  0  0
   14.1216    5.9678    7.7436 C   0  0  0  0  0  0  0  0  0  0  0  0
   15.4892    5.4178    8.0248 C   0  0  0  0  0  0  0  0  0  0  0  0
   16.6091    5.8180    7.2802 C   0  0  0  0  0  0  0  0  0  0  0  0
   16.4691    6.6794    6.2613 F   0  0  0  0  0  0  0  0  0  0  0  0
   17.8732    5.3026    7.5541 C   0  0  0  0  0  0  0  0  0  0  0  0
   18.9198    5.6630    6.7985 F   0  0  0  0  0  0  0  0  0  0  0  0
   18.0483    4.4060    8.5973 C   0  0  0  0  0  0  0  0  0  0  0  0
   19.2665    3.9144    8.8627 F   0  0  0  0  0  0  0  0  0  0  0  0
   16.9591    4.0128    9.3602 C   0  0  0  0  0  0  0  0  0  0  0  0
   17.1287    3.1545   10.3755 F   0  0  0  0  0  0  0  0  0  0  0  0
   15.6888    4.5047    9.0710 C   0  0  0  0  0  0  0  0  0  0  0  0
   14.6525    4.0930    9.8169 F   0  0  0  0  0  0  0  0  0  0  0  0
   13.5465    6.8825    8.6943 C   0  0  0  0  0  0  0  0  0  0  0  0
   14.1095    7.3947    9.8501 C   0  0  0  0  0  0  0  0  0  0  0  0
   13.1639    8.2195   10.4691 C   0  0  0  0  0  0  0  0  0  0  0  0
   12.0271    8.2535    9.6776 C   0  0  0  0  0  0  0  0  0  0  0  0
   12.2735    7.4245    8.5951 N   0  0  0  0  0  0  0  0  0  0  0  0
   10.8063    8.9867    9.8921 C   0  0  0  0  0  0  0  0  0  0  0  0
   10.7191    9.8532   11.1130 C   0  0  0  0  0  0  0  0  0  0  0  0
    9.9283    9.4932   12.2135 C   0  0  0  0  0  0  0  0  0  0  0  0
    9.1826    8.3788   12.1729 F   0  0  0  0  0  0  0  0  0  0  0  0
    9.8739   10.2987   13.3476 C   0  0  0  0  0  0  0  0  0  0  0  0
    9.0797    9.9575   14.3717 F   0  0  0  0  0  0  0  0  0  0  0  0
   10.6302   11.4598   13.4145 C   0  0  0  0  0  0  0  0  0  0  0  0
   10.5813   12.2302   14.5099 F   0  0  0  0  0  0  0  0  0  0  0  0
   11.4313   11.8258   12.3434 C   0  0  0  0  0  0  0  0  0  0  0  0
   12.1709   12.9414   12.4109 F   0  0  0  0  0  0  0  0  0  0  0  0
   11.4680   11.0365   11.1978 C   0  0  0  0  0  0  0  0  0  0  0  0
   12.2440   11.4205   10.1731 F   0  0  0  0  0  0  0  0  0  0  0  0
    9.7324    8.9705    9.0655 C   0  0  0  0  0  0  0  0  0  0  0  0
    9.5616    8.2859    7.8704 N   0  0  0  0  0  0  0  0  0  0  0  0
    8.3546    8.5825    7.4546 C   0  0  0  0  0  0  0  0  0  0  0  0
    7.6487    8.1449    6.2006 C   0  0  0  0  0  0  0  0  0  0  0  0
    6.2683    8.6049    5.9039 C   0  0  0  0  0  0  0  0  0  0  0  0
    6.0159    9.9404    5.5613 C   0  0  0  0  0  0  0  0  0  0  0  0
    7.0252   10.8227    5.5218 F   0  0  0  0  0  0  0  0  0  0  0  0
    4.7221   10.3826    5.2953 C   0  0  0  0  0  0  0  0  0  0  0  0
    4.5035   11.6732    5.0092 F   0  0  0  0  0  0  0  0  0  0  0  0
    3.6597    9.4924    5.3408 C   0  0  0  0  0  0  0  0  0  0  0  0
    2.4159    9.9175    5.0812 F   0  0  0  0  0  0  0  0  0  0  0  0
    3.8877    8.1627    5.6628 C   0  0  0  0  0  0  0  0  0  0  0  0
    2.8654    7.2973    5.6966 F   0  0  0  0  0  0  0  0  0  0  0  0
    5.1781    7.7248    5.9530 C   0  0  0  0  0  0  0  0  0  0  0  0
    5.3692    6.4362    6.2715 F   0  0  0  0  0  0  0  0  0  0  0  0
    8.2929    7.3498    5.3258 C   0  0  0  0  0  0  0  0  0  0  0  0
    7.7448    6.8554    4.0661 C   0  0  0  0  0  0  0  0  0  0  0  0
    8.6553    6.0674    3.4716 C   0  0  0  0  0  0  0  0  0  0  0  0
    9.8635    6.0268    4.2960 C   0  0  0  0  0  0  0  0  0  0  0  0
    9.5573    6.8166    5.3756 N   0  0  0  0  0  0  0  0  0  0  0  0
    7.6103    9.4717    8.3574 C   0  0  0  0  0  0  0  0  0  0  0  0
    8.5086    9.7078    9.3033 C   0  0  0  0  0  0  0  0  0  0  0  0
   14.0998    4.6775    5.6276 C   0  0  0  0  0  0  0  0  0  0  0  0
   13.3229    4.5546    4.5614 C   0  0  0  0  0  0  0  0  0  0  0  0
   11.0781    3.1210    2.8603 C   0  0  0  0  0  0  0  0  0  0  0  0
   11.1639    2.3396    1.7106 C   0  0  0  0  0  0  0  0  0  0  0  0
    3.6533   -6.4275    0.6585 N   0  0  0  0  0  0  0  0  0  0  0  0
    3.0494   -6.6712    1.8453 C   0  0  0  0  0  0  0  0  0  0  0  0
    1.6039   -2.7750    4.5508 C   0  0  0  0  0  0  0  0  0  0  0  0
    1.3004   -1.5926    3.8695 C   0  0  0  0  0  0  0  0  0  0  0  0
    0.8520    0.5632   -0.4093 H   0  0  0  0  0  0  0  0  0  0  0  0
    0.6648   -1.1722   -0.3287 H   0  0  0  0  0  0  0  0  0  0  0  0
    2.1091   -0.4190    0.3036 H   0  0  0  0  0  0  0  0  0  0  0  0
   -0.1078   -2.9294    1.1304 H   0  0  0  0  0  0  0  0  0  0  0  0
    0.4276   -4.9760    2.3169 H   0  0  0  0  0  0  0  0  0  0  0  0
    0.3049   -4.8937    6.3264 H   0  0  0  0  0  0  0  0  0  0  0  0
    2.4153   -8.4781    6.5714 H   0  0  0  0  0  0  0  0  0  0  0  0
    4.7096   -4.6122    3.8427 H   0  0  0  0  0  0  0  0  0  0  0  0
    5.9303   -4.2643    1.7640 H   0  0  0  0  0  0  0  0  0  0  0  0
    6.1150   -4.0775   -2.0555 H   0  0  0  0  0  0  0  0  0  0  0  0
    5.3528   -2.7842    0.4246 H   0  0  0  0  0  0  0  0  0  0  0  0
    5.6956   -2.0170   -1.1145 H   0  0  0  0  0  0  0  0  0  0  0  0
    7.7927   -3.5581    0.3505 H   0  0  0  0  0  0  0  0  0  0  0  0
    7.4600   -1.8445    0.6900 H   0  0  0  0  0  0  0  0  0  0  0  0
    8.2686   -2.9310   -1.9696 H   0  0  0  0  0  0  0  0  0  0  0  0
    9.3336   -2.1225   -0.7800 H   0  0  0  0  0  0  0  0  0  0  0  0
    7.0863   -0.8923   -2.2929 H   0  0  0  0  0  0  0  0  0  0  0  0
    8.8451   -0.6006   -2.4606 H   0  0  0  0  0  0  0  0  0  0  0  0
    7.1902    0.1193   -0.0956 H   0  0  0  0  0  0  0  0  0  0  0  0
    7.7855    1.2166   -1.3727 H   0  0  0  0  0  0  0  0  0  0  0  0
    9.5535   -0.3341    0.4534 H   0  0  0  0  0  0  0  0  0  0  0  0
    9.0709    1.3467    0.6955 H   0  0  0  0  0  0  0  0  0  0  0  0
   10.5197    0.4459   -1.6659 H   0  0  0  0  0  0  0  0  0  0  0  0
   11.0946    4.7860   -0.5869 H   0  0  0  0  0  0  0  0  0  0  0  0
   11.0719    6.1535    1.4191 H   0  0  0  0  0  0  0  0  0  0  0  0
   15.0625    7.2016   10.1958 H   0  0  0  0  0  0  0  0  0  0  0  0
   13.2915    8.7181   11.3636 H   0  0  0  0  0  0  0  0  0  0  0  0
   11.6390    7.2465    7.8637 H   0  0  0  0  0  0  0  0  0  0  0  0
    6.8084    7.0760    3.6927 H   0  0  0  0  0  0  0  0  0  0  0  0
    8.5239    5.5702    2.5768 H   0  0  0  0  0  0  0  0  0  0  0  0
   10.1845    6.9849    6.1155 H   0  0  0  0  0  0  0  0  0  0  0  0
    6.6425    9.8207    8.2763 H   0  0  0  0  0  0  0  0  0  0  0  0
    8.3554   10.3369   10.1069 H   0  0  0  0  0  0  0  0  0  0  0  0
   15.0063    4.1991    5.7474 H   0  0  0  0  0  0  0  0  0  0  0  0
   13.4992    4.0418    3.6833 H   0  0  0  0  0  0  0  0  0  0  0  0
   11.0438    2.6685    3.7872 H   0  0  0  0  0  0  0  0  0  0  0  0
   11.2610    1.3151    1.7879 H   0  0  0  0  0  0  0  0  0  0  0  0
    2.3173   -7.3980    1.8738 H   0  0  0  0  0  0  0  0  0  0  0  0
    2.0573   -2.7262    5.4766 H   0  0  0  0  0  0  0  0  0  0  0  0
    1.5308   -0.6782    4.2888 H   0  0  0  0  0  0  0  0  0  0  0  0
  1  2  1  0  0  0  0
  1 99  1  0  0  0  0
  1100  1  0  0  0  0
  1101  1  0  0  0  0
  2  3  2  0  0  0  0
  2  4  2  0  0  0  0
  2  5  1  0  0  0  0
  5  6  1  0  0  0  0
  5 98  2  0  0  0  0
  6  7  2  0  0  0  0
  6102  1  0  0  0  0
  7  8  1  0  0  0  0
  7103  1  0  0  0  0
  8  9  1  0  0  0  0
  8 97  2  0  0  0  0
  9 10  1  0  0  0  0
  9 15  2  0  0  0  0
 10 11  2  0  0  0  0
 10104  1  0  0  0  0
 11 12  1  0  0  0  0
 11 13  1  0  0  0  0
 13 14  2  0  0  0  0
 13105  1  0  0  0  0
 14 15  1  0  0  0  0
 15 16  1  0  0  0  0
 16 17  1  0  0  0  0
 16 96  2  0  0  0  0
 17 18  2  0  0  0  0
 17106  1  0  0  0  0
 18 19  1  0  0  0  0
 18107  1  0  0  0  0
 19 20  1  0  0  0  0
 19 95  2  0  0  0  0
 20 21  2  0  0  0  0
 20 22  1  0  0  0  0
 22 23  1  0  0  0  0
 22108  1  0  0  0  0
 23 24  1  0  0  0  0
 23109  1  0  0  0  0
 23110  1  0  0  0  0
 24 25  1  0  0  0  0
 24111  1  0  0  0  0
 24112  1  0  0  0  0
 25 26  1  0  0  0  0
 25113  1  0  0  0  0
 25114  1  0  0  0  0
 26 27  1  0  0  0  0
 26115  1  0  0  0  0
 26116  1  0  0  0  0
 27 28  1  0  0  0  0
 27117  1  0  0  0  0
 27118  1  0  0  0  0
 28 29  1  0  0  0  0
 28119  1  0  0  0  0
 28120  1  0  0  0  0
 29 30  1  0  0  0  0
 29121  1  0  0  0  0
 30 31  2  0  0  0  0
 30 32  1  0  0  0  0
 32 33  1  0  0  0  0
 32 94  2  0  0  0  0
 33 34  2  0  0  0  0
 33122  1  0  0  0  0
 34 35  1  0  0  0  0
 34123  1  0  0  0  0
 35 36  1  0  0  0  0
 35 93  2  0  0  0  0
 36 37  1  0  0  0  0
 36 87  2  0  0  0  0
 37 38  2  0  0  0  0
 37 92  1  0  0  0  0
 38 39  1  0  0  0  0
 39 40  2  0  0  0  0
 39 91  1  0  0  0  0
 40 41  1  0  0  0  0
 40 52  1  0  0  0  0
 41 42  1  0  0  0  0
 41 50  2  0  0  0  0
 42 43  1  0  0  0  0
 42 44  2  0  0  0  0
 44 45  1  0  0  0  0
 44 46  1  0  0  0  0
 46 47  1  0  0  0  0
 46 48  2  0  0  0  0
 48 49  1  0  0  0  0
 48 50  1  0  0  0  0
 50 51  1  0  0  0  0
 52 53  2  0  0  0  0
 52 56  1  0  0  0  0
 53 54  1  0  0  0  0
 53124  1  0  0  0  0
 54 55  2  0  0  0  0
 54125  1  0  0  0  0
 55 56  1  0  0  0  0
 55 57  1  0  0  0  0
 56126  1  0  0  0  0
 57 58  1  0  0  0  0
 57 69  2  0  0  0  0
 58 59  1  0  0  0  0
 58 67  2  0  0  0  0
 59 60  1  0  0  0  0
 59 61  2  0  0  0  0
 61 62  1  0  0  0  0
 61 63  1  0  0  0  0
 63 64  1  0  0  0  0
 63 65  2  0  0  0  0
 65 66  1  0  0  0  0
 65 67  1  0  0  0  0
 67 68  1  0  0  0  0
 69 70  1  0  0  0  0
 69 90  1  0  0  0  0
 70 71  2  0  0  0  0
 71 72  1  0  0  0  0
 71 89  1  0  0  0  0
 72 73  1  0  0  0  0
 72 84  2  0  0  0  0
 73 74  1  0  0  0  0
 73 82  2  0  0  0  0
 74 75  1  0  0  0  0
 74 76  2  0  0  0  0
 76 77  1  0  0  0  0
 76 78  1  0  0  0  0
 78 79  1  0  0  0  0
 78 80  2  0  0  0  0
 80 81  1  0  0  0  0
 80 82  1  0  0  0  0
 82 83  1  0  0  0  0
 84 85  1  0  0  0  0
 84 88  1  0  0  0  0
 85 86  2  0  0  0  0
 85127  1  0  0  0  0
 86 87  1  0  0  0  0
 86128  1  0  0  0  0
 87 88  1  0  0  0  0
 88129  1  0  0  0  0
 89 90  2  0  0  0  0
 89130  1  0  0  0  0
 90131  1  0  0  0  0
 91 92  2  0  0  0  0
 91132  1  0  0  0  0
 92133  1  0  0  0  0
 93 94  1  0  0  0  0
 93134  1  0  0  0  0
 94135  1  0  0  0  0
 95 96  1  0  0  0  0
 96136  1  0  0  0  0
 97 98  1  0  0  0  0
 97137  1  0  0  0  0
 98138  1  0  0  0  0
M  END
$$$$
