1_1_1535
 OpenBabel01102313203D

156169  0  0  1  0  0  0  0  0999 V2000
   -7.4308    2.0141   -4.7865 C   0  0  0  0  0  0  0  0  0  0  0  0
   -7.9002    0.7672   -4.7060 C   0  0  0  0  0  0  0  0  0  0  0  0
   -9.2445    0.4991   -5.2570 C   0  0  0  0  0  0  0  0  0  0  0  0
   -9.6692    0.8437   -6.3413 O   0  0  0  0  0  0  0  0  0  0  0  0
   -9.8717   -0.2602   -4.3162 O   0  0  0  0  0  0  0  0  0  0  0  0
   -8.9597   -0.5471   -3.2032 C   0  0  1  0  0  0  0  0  0  0  0  0
   -7.5747   -0.4518   -3.9024 C   0  0  2  0  0  0  0  0  0  0  0  0
   -6.1697   -0.6637   -3.2252 C   0  0  1  0  0  0  0  0  0  0  0  0
   -5.7739    0.5510   -2.5452 O   0  0  0  0  0  0  0  0  0  0  0  0
   -4.6336    0.7214   -1.8119 C   0  0  0  0  0  0  0  0  0  0  0  0
   -3.7944   -0.1391   -1.5764 O   0  0  0  0  0  0  0  0  0  0  0  0
   -4.5324    2.1405   -1.3416 C   0  0  2  0  0  0  0  0  0  0  0  0
   -5.2184    3.1881   -2.1648 C   0  0  0  0  0  0  0  0  0  0  0  0
   -3.2303    2.5744   -0.9013 O   0  0  0  0  0  0  0  0  0  0  0  0
   -4.2606    2.5508    0.0954 C   0  0  2  0  0  0  0  0  0  0  0  0
   -3.9220    1.6982    1.2526 C   0  0  0  0  0  0  0  0  0  0  0  0
   -6.1588   -2.0065   -2.4169 C   0  0  1  0  0  0  0  0  0  0  0  0
   -4.8547   -2.4830   -2.0209 O   0  0  0  0  0  0  0  0  0  0  0  0
   -3.9708   -3.1803   -2.7650 C   0  0  0  0  0  0  0  0  0  0  0  0
   -4.2400   -3.4115   -4.2227 C   0  0  0  0  0  0  0  0  0  0  0  0
   -2.9541   -3.6409   -2.2494 O   0  0  0  0  0  0  0  0  0  0  0  0
   -7.0085   -1.9406   -1.1806 C   0  0  0  0  0  0  0  0  0  0  0  0
   -6.6678   -0.9187   -0.1729 C   0  0  0  0  0  0  0  0  0  0  0  0
   -6.9142    0.2702   -0.3246 O   0  0  0  0  0  0  0  0  0  0  0  0
   -6.0720   -1.3297    0.9600 N   0  0  0  0  0  0  0  0  0  0  0  0
   -5.6734   -2.6647    1.3119 C   0  0  0  0  0  0  0  0  0  0  0  0
   -4.1850   -2.7537    1.6000 C   0  0  0  0  0  0  0  0  0  0  0  0
   -3.6502   -1.7872    2.6610 C   0  0  0  0  0  0  0  0  0  0  0  0
   -4.5141   -1.5685    3.9056 C   0  0  0  0  0  0  0  0  0  0  0  0
   -4.9712   -2.8355    4.6186 C   0  0  0  0  0  0  0  0  0  0  0  0
   -3.8581   -3.8245    4.8980 C   0  0  0  0  0  0  0  0  0  0  0  0
   -2.9028   -3.3032    5.8548 N   0  0  0  0  0  0  0  0  0  0  0  0
   -2.4642   -3.8941    7.0112 C   0  0  0  0  0  0  0  0  0  0  0  0
   -1.8174   -3.2597    7.8360 O   0  0  0  0  0  0  0  0  0  0  0  0
   -2.8175   -5.3063    7.2621 C   0  0  0  0  0  0  0  0  0  0  0  0
   -3.3267   -5.6604    8.5109 C   0  0  0  0  0  0  0  0  0  0  0  0
   -3.7512   -6.9702    8.7300 C   0  0  0  0  0  0  0  0  0  0  0  0
   -3.7229   -7.9118    7.6866 C   0  0  0  0  0  0  0  0  0  0  0  0
   -4.2140   -9.2963    7.8945 C   0  0  0  0  0  0  0  0  0  0  0  0
   -3.2672  -10.4568    7.7629 C   0  0  0  0  0  0  0  0  0  0  0  0
   -3.5080  -11.7388    7.8753 N   0  0  0  0  0  0  0  0  0  0  0  0
   -2.2980  -12.3726    7.6258 C   0  0  0  0  0  0  0  0  0  0  0  0
   -2.0041  -13.6924    7.7009 C   0  0  0  0  0  0  0  0  0  0  0  0
   -0.5928  -14.1088    7.3952 C   0  0  0  0  0  0  0  0  0  0  0  0
    0.4782  -13.7623    8.2344 C   0  0  0  0  0  0  0  0  0  0  0  0
    0.2669  -13.0062    9.3226 F   0  0  0  0  0  0  0  0  0  0  0  0
    1.7809  -14.1530    7.9350 C   0  0  0  0  0  0  0  0  0  0  0  0
    2.7934  -13.7603    8.7203 F   0  0  0  0  0  0  0  0  0  0  0  0
    2.0337  -14.9339    6.8178 C   0  0  0  0  0  0  0  0  0  0  0  0
    3.2865  -15.3170    6.5357 F   0  0  0  0  0  0  0  0  0  0  0  0
    0.9884  -15.3112    5.9890 C   0  0  0  0  0  0  0  0  0  0  0  0
    1.2282  -16.0799    4.9176 F   0  0  0  0  0  0  0  0  0  0  0  0
   -0.3102  -14.8910    6.2651 C   0  0  0  0  0  0  0  0  0  0  0  0
   -1.2953  -15.2564    5.4310 F   0  0  0  0  0  0  0  0  0  0  0  0
   -2.9586  -14.7111    8.0509 C   0  0  0  0  0  0  0  0  0  0  0  0
   -2.7522  -16.0704    8.2033 C   0  0  0  0  0  0  0  0  0  0  0  0
   -3.9848  -16.6712    8.4767 C   0  0  0  0  0  0  0  0  0  0  0  0
   -4.9477  -15.6786    8.5662 C   0  0  0  0  0  0  0  0  0  0  0  0
   -4.3052  -14.4809    8.2952 N   0  0  0  0  0  0  0  0  0  0  0  0
   -6.3489  -15.8134    8.8766 C   0  0  0  0  0  0  0  0  0  0  0  0
   -6.8699  -17.1923    9.1690 C   0  0  0  0  0  0  0  0  0  0  0  0
   -7.7512  -17.8517    8.2994 C   0  0  0  0  0  0  0  0  0  0  0  0
   -8.1962  -17.2357    7.1936 F   0  0  0  0  0  0  0  0  0  0  0  0
   -8.2151  -19.1330    8.5860 C   0  0  0  0  0  0  0  0  0  0  0  0
   -9.1010  -19.7204    7.7697 F   0  0  0  0  0  0  0  0  0  0  0  0
   -7.7746  -19.7960    9.7217 C   0  0  0  0  0  0  0  0  0  0  0  0
   -8.2146  -21.0329    9.9903 F   0  0  0  0  0  0  0  0  0  0  0  0
   -6.8840  -19.1738   10.5825 C   0  0  0  0  0  0  0  0  0  0  0  0
   -6.4420  -19.8192   11.6707 F   0  0  0  0  0  0  0  0  0  0  0  0
   -6.4480  -17.8787   10.3188 C   0  0  0  0  0  0  0  0  0  0  0  0
   -5.5989  -17.2984   11.1802 F   0  0  0  0  0  0  0  0  0  0  0  0
   -7.2296  -14.7851    8.9540 C   0  0  0  0  0  0  0  0  0  0  0  0
   -7.0068  -13.4267    8.7703 N   0  0  0  0  0  0  0  0  0  0  0  0
   -8.1698  -12.8444    8.9354 C   0  0  0  0  0  0  0  0  0  0  0  0
   -8.5169  -11.3799    8.8884 C   0  0  0  0  0  0  0  0  0  0  0  0
   -9.9095  -10.9175    9.1313 C   0  0  0  0  0  0  0  0  0  0  0  0
  -10.5109  -11.0670   10.3892 C   0  0  0  0  0  0  0  0  0  0  0  0
   -9.8300  -11.6397   11.3928 F   0  0  0  0  0  0  0  0  0  0  0  0
  -11.8291  -10.6725   10.6098 C   0  0  0  0  0  0  0  0  0  0  0  0
  -12.3960  -10.8781   11.8063 F   0  0  0  0  0  0  0  0  0  0  0  0
  -12.5601  -10.0862    9.5879 C   0  0  0  0  0  0  0  0  0  0  0  0
  -13.8265   -9.7040    9.8009 F   0  0  0  0  0  0  0  0  0  0  0  0
  -11.9789   -9.9043    8.3424 C   0  0  0  0  0  0  0  0  0  0  0  0
  -12.6749   -9.3212    7.3570 F   0  0  0  0  0  0  0  0  0  0  0  0
  -10.6725  -10.3298    8.1115 C   0  0  0  0  0  0  0  0  0  0  0  0
  -10.1440  -10.1563    6.8911 F   0  0  0  0  0  0  0  0  0  0  0  0
   -7.5418  -10.4851    8.6397 C   0  0  0  0  0  0  0  0  0  0  0  0
   -7.7163   -9.0375    8.5736 C   0  0  0  0  0  0  0  0  0  0  0  0
   -6.5398   -8.4683    8.2677 C   0  0  0  0  0  0  0  0  0  0  0  0
   -5.5169   -9.5098    8.1608 C   0  0  0  0  0  0  0  0  0  0  0  0
   -6.2049  -10.6751    8.3884 N   0  0  0  0  0  0  0  0  0  0  0  0
   -9.2720  -13.7759    9.2106 C   0  0  0  0  0  0  0  0  0  0  0  0
   -8.6367  -14.9377    9.2600 C   0  0  0  0  0  0  0  0  0  0  0  0
   -1.3411  -11.3429    7.2879 C   0  0  0  0  0  0  0  0  0  0  0  0
   -1.8685  -10.1375    7.4349 C   0  0  0  0  0  0  0  0  0  0  0  0
   -3.2033   -7.5399    6.4383 C   0  0  0  0  0  0  0  0  0  0  0  0
   -2.6904   -6.2627    6.2486 C   0  0  0  0  0  0  0  0  0  0  0  0
   -8.1107   -2.6919   -1.0073 C   0  0  0  0  0  0  0  0  0  0  0  0
   -9.1816   -2.5321   -0.0266 C   0  0  2  0  0  0  0  0  0  0  0  0
  -10.5153   -2.3381   -0.5329 O   0  0  0  0  0  0  0  0  0  0  0  0
   -9.9421   -1.2322    0.1665 C   0  0  2  0  0  0  0  0  0  0  0  0
   -9.6719    0.0780   -0.5985 C   0  0  2  0  0  0  0  0  0  0  0  0
   -9.5050    1.2354    0.3768 C   0  0  0  0  0  0  0  0  0  0  0  0
  -10.6208    0.3772   -1.6297 O   0  0  0  0  0  0  0  0  0  0  0  0
   -9.2543    0.4141   -2.0691 C   0  0  2  0  0  0  0  0  0  0  0  0
   -7.8518    2.6820   -5.4511 H   0  0  0  0  0  0  0  0  0  0  0  0
   -6.6469    2.3102   -4.1842 H   0  0  0  0  0  0  0  0  0  0  0  0
   -9.0396   -1.4952   -2.7137 H   0  0  0  0  0  0  0  0  0  0  0  0
   -7.2623   -1.3470   -4.3983 H   0  0  0  0  0  0  0  0  0  0  0  0
   -5.3850   -0.8139   -3.9370 H   0  0  0  0  0  0  0  0  0  0  0  0
   -5.0666    4.1486   -1.7183 H   0  0  0  0  0  0  0  0  0  0  0  0
   -6.2664    2.9771   -2.2093 H   0  0  0  0  0  0  0  0  0  0  0  0
   -4.8120    3.1867   -3.1546 H   0  0  0  0  0  0  0  0  0  0  0  0
   -4.8399    3.1768    0.7415 H   0  0  0  0  0  0  0  0  0  0  0  0
   -3.2914    0.8955    0.9318 H   0  0  0  0  0  0  0  0  0  0  0  0
   -4.8198    1.2990    1.6763 H   0  0  0  0  0  0  0  0  0  0  0  0
   -3.4095    2.2823    1.9881 H   0  0  0  0  0  0  0  0  0  0  0  0
   -6.5608   -2.7008   -3.1249 H   0  0  0  0  0  0  0  0  0  0  0  0
   -5.1621   -2.9413   -4.4941 H   0  0  0  0  0  0  0  0  0  0  0  0
   -4.3068   -4.4627   -4.4107 H   0  0  0  0  0  0  0  0  0  0  0  0
   -3.4431   -2.9953   -4.8030 H   0  0  0  0  0  0  0  0  0  0  0  0
   -5.8864   -0.6319    1.6292 H   0  0  0  0  0  0  0  0  0  0  0  0
   -5.9086   -3.3212    0.5004 H   0  0  0  0  0  0  0  0  0  0  0  0
   -6.2005   -2.9450    2.1999 H   0  0  0  0  0  0  0  0  0  0  0  0
   -3.6621   -2.5601    0.6868 H   0  0  0  0  0  0  0  0  0  0  0  0
   -4.0247   -3.7351    1.9951 H   0  0  0  0  0  0  0  0  0  0  0  0
   -3.5156   -0.8354    2.1911 H   0  0  0  0  0  0  0  0  0  0  0  0
   -2.7534   -2.2442    3.0240 H   0  0  0  0  0  0  0  0  0  0  0  0
   -5.3863   -1.0239    3.6098 H   0  0  0  0  0  0  0  0  0  0  0  0
   -3.8951   -1.0456    4.6044 H   0  0  0  0  0  0  0  0  0  0  0  0
   -5.7045   -3.3189    4.0075 H   0  0  0  0  0  0  0  0  0  0  0  0
   -5.3594   -2.5318    5.5683 H   0  0  0  0  0  0  0  0  0  0  0  0
   -3.3485   -4.0403    3.9822 H   0  0  0  0  0  0  0  0  0  0  0  0
   -4.2952   -4.7089    5.3124 H   0  0  0  0  0  0  0  0  0  0  0  0
   -2.5232   -2.4183    5.6496 H   0  0  0  0  0  0  0  0  0  0  0  0
   -3.3888   -4.9596    9.2659 H   0  0  0  0  0  0  0  0  0  0  0  0
   -4.0884   -7.2503    9.6643 H   0  0  0  0  0  0  0  0  0  0  0  0
   -1.8452  -16.5570    8.1282 H   0  0  0  0  0  0  0  0  0  0  0  0
   -4.1497  -17.6834    8.5924 H   0  0  0  0  0  0  0  0  0  0  0  0
   -4.7397  -13.5976    8.2785 H   0  0  0  0  0  0  0  0  0  0  0  0
   -8.6017   -8.5328    8.7359 H   0  0  0  0  0  0  0  0  0  0  0  0
   -6.3817   -7.4578    8.1299 H   0  0  0  0  0  0  0  0  0  0  0  0
   -5.7804  -11.5633    8.3730 H   0  0  0  0  0  0  0  0  0  0  0  0
  -10.2773  -13.5775    9.3333 H   0  0  0  0  0  0  0  0  0  0  0  0
   -9.0877  -15.8375    9.4878 H   0  0  0  0  0  0  0  0  0  0  0  0
   -0.3748  -11.5236    6.9737 H   0  0  0  0  0  0  0  0  0  0  0  0
   -1.4165   -9.2143    7.3433 H   0  0  0  0  0  0  0  0  0  0  0  0
   -3.2019   -8.2163    5.6589 H   0  0  0  0  0  0  0  0  0  0  0  0
   -2.2176   -6.0204    5.3639 H   0  0  0  0  0  0  0  0  0  0  0  0
   -8.2137   -3.4890   -1.6547 H   0  0  0  0  0  0  0  0  0  0  0  0
   -8.6643   -3.1890    0.6410 H   0  0  0  0  0  0  0  0  0  0  0  0
  -10.1542   -0.6303    1.0254 H   0  0  0  0  0  0  0  0  0  0  0  0
   -9.8105    0.9251    1.3542 H   0  0  0  0  0  0  0  0  0  0  0  0
  -10.1091    2.0594    0.0591 H   0  0  0  0  0  0  0  0  0  0  0  0
   -8.4781    1.5350    0.4024 H   0  0  0  0  0  0  0  0  0  0  0  0
   -8.4910    1.0660   -2.4397 H   0  0  0  0  0  0  0  0  0  0  0  0
  1  2  2  0  0  0  0
  1106  1  0  0  0  0
  1107  1  0  0  0  0
  2  3  1  0  0  0  0
  2  7  1  0  0  0  0
  3  5  1  0  0  0  0
  3  4  2  0  0  0  0
  5  6  1  0  0  0  0
  6  7  1  0  0  0  0
  6105  1  0  0  0  0
  6108  1  1  0  0  0
  7  8  1  0  0  0  0
  7109  1  6  0  0  0
  8 17  1  0  0  0  0
  8  9  1  0  0  0  0
  8110  1  6  0  0  0
  9 10  1  0  0  0  0
 10 11  2  0  0  0  0
 12 14  1  0  0  0  0
 12 15  1  0  0  0  0
 12 13  1  0  0  0  0
 12 10  1  6  0  0  0
 13111  1  0  0  0  0
 13112  1  0  0  0  0
 13113  1  0  0  0  0
 14 15  1  0  0  0  0
 15 16  1  0  0  0  0
 15114  1  1  0  0  0
 16115  1  0  0  0  0
 16116  1  0  0  0  0
 16117  1  0  0  0  0
 17 22  1  0  0  0  0
 17 18  1  0  0  0  0
 17118  1  6  0  0  0
 18 19  1  0  0  0  0
 19 20  1  0  0  0  0
 19 21  2  0  0  0  0
 20119  1  0  0  0  0
 20120  1  0  0  0  0
 20121  1  0  0  0  0
 22 98  2  0  0  0  0
 22 23  1  0  0  0  0
 23 24  2  0  0  0  0
 23 25  1  0  0  0  0
 25 26  1  0  0  0  0
 25122  1  0  0  0  0
 26 27  1  0  0  0  0
 26123  1  0  0  0  0
 26124  1  0  0  0  0
 27 28  1  0  0  0  0
 27125  1  0  0  0  0
 27126  1  0  0  0  0
 28 29  1  0  0  0  0
 28127  1  0  0  0  0
 28128  1  0  0  0  0
 29 30  1  0  0  0  0
 29129  1  0  0  0  0
 29130  1  0  0  0  0
 30 31  1  0  0  0  0
 30131  1  0  0  0  0
 30132  1  0  0  0  0
 31 32  1  0  0  0  0
 31133  1  0  0  0  0
 31134  1  0  0  0  0
 32 33  1  0  0  0  0
 32135  1  0  0  0  0
 33 34  2  0  0  0  0
 33 35  1  0  0  0  0
 35 36  1  0  0  0  0
 35 97  2  0  0  0  0
 36 37  2  0  0  0  0
 36136  1  0  0  0  0
 37 38  1  0  0  0  0
 37137  1  0  0  0  0
 38 39  1  0  0  0  0
 38 96  2  0  0  0  0
 39 40  1  0  0  0  0
 39 90  2  0  0  0  0
 40 41  2  0  0  0  0
 40 95  1  0  0  0  0
 41 42  1  0  0  0  0
 42 43  2  0  0  0  0
 42 94  1  0  0  0  0
 43 44  1  0  0  0  0
 43 55  1  0  0  0  0
 44 45  1  0  0  0  0
 44 53  2  0  0  0  0
 45 46  1  0  0  0  0
 45 47  2  0  0  0  0
 47 48  1  0  0  0  0
 47 49  1  0  0  0  0
 49 50  1  0  0  0  0
 49 51  2  0  0  0  0
 51 52  1  0  0  0  0
 51 53  1  0  0  0  0
 53 54  1  0  0  0  0
 55 56  2  0  0  0  0
 55 59  1  0  0  0  0
 56 57  1  0  0  0  0
 56138  1  0  0  0  0
 57 58  2  0  0  0  0
 57139  1  0  0  0  0
 58 59  1  0  0  0  0
 58 60  1  0  0  0  0
 59140  1  0  0  0  0
 60 61  1  0  0  0  0
 60 72  2  0  0  0  0
 61 62  1  0  0  0  0
 61 70  2  0  0  0  0
 62 63  1  0  0  0  0
 62 64  2  0  0  0  0
 64 65  1  0  0  0  0
 64 66  1  0  0  0  0
 66 67  1  0  0  0  0
 66 68  2  0  0  0  0
 68 69  1  0  0  0  0
 68 70  1  0  0  0  0
 70 71  1  0  0  0  0
 72 73  1  0  0  0  0
 72 93  1  0  0  0  0
 73 74  2  0  0  0  0
 74 75  1  0  0  0  0
 74 92  1  0  0  0  0
 75 76  1  0  0  0  0
 75 87  2  0  0  0  0
 76 77  1  0  0  0  0
 76 85  2  0  0  0  0
 77 78  1  0  0  0  0
 77 79  2  0  0  0  0
 79 80  1  0  0  0  0
 79 81  1  0  0  0  0
 81 82  1  0  0  0  0
 81 83  2  0  0  0  0
 83 84  1  0  0  0  0
 83 85  1  0  0  0  0
 85 86  1  0  0  0  0
 87 88  1  0  0  0  0
 87 91  1  0  0  0  0
 88 89  2  0  0  0  0
 88141  1  0  0  0  0
 89 90  1  0  0  0  0
 89142  1  0  0  0  0
 90 91  1  0  0  0  0
 91143  1  0  0  0  0
 92 93  2  0  0  0  0
 92144  1  0  0  0  0
 93145  1  0  0  0  0
 94 95  2  0  0  0  0
 94146  1  0  0  0  0
 95147  1  0  0  0  0
 96 97  1  0  0  0  0
 96148  1  0  0  0  0
 97149  1  0  0  0  0
 98 99  1  0  0  0  0
 98150  1  0  0  0  0
 99100  1  0  0  0  0
 99101  1  0  0  0  0
 99151  1  1  0  0  0
100101  1  0  0  0  0
101102  1  0  0  0  0
101152  1  1  0  0  0
102104  1  0  0  0  0
102105  1  0  0  0  0
102103  1  1  0  0  0
103153  1  0  0  0  0
103154  1  0  0  0  0
103155  1  0  0  0  0
104105  1  0  0  0  0
105156  1  6  0  0  0
M  END
$$$$
