1_1_1553
 OpenBabel01102313203D

139150  0  0  0  0  0  0  0  0999 V2000
    1.0364    0.5181    0.2981 O   0  0  0  0  0  0  0  0  0  0  0  0
    2.1567    0.1380   -0.0250 C   0  0  0  0  0  0  0  0  0  0  0  0
    2.9961    0.8809   -1.0428 C   0  0  0  0  0  0  0  0  0  0  0  0
    3.9885    1.8596   -0.4065 C   0  0  0  0  0  0  0  0  0  0  0  0
    5.1441    1.2376    0.3847 C   0  0  0  0  0  0  0  0  0  0  0  0
    5.8609    0.1859   -0.3804 C   0  0  0  0  0  0  0  0  0  0  0  0
    5.6012   -1.1081   -0.3955 N   0  0  0  0  0  0  0  0  0  0  0  0
    6.5149   -1.6076   -1.2894 C   0  0  0  0  0  0  0  0  0  0  0  0
    6.6532   -3.0092   -1.6166 C   0  0  0  0  0  0  0  0  0  0  0  0
    5.5636   -3.7237   -2.1230 C   0  0  0  0  0  0  0  0  0  0  0  0
    5.7185   -5.0603   -2.5031 C   0  0  0  0  0  0  0  0  0  0  0  0
    6.9569   -5.6954   -2.3621 C   0  0  0  0  0  0  0  0  0  0  0  0
    7.0796   -7.3417   -2.8702 Cl  0  0  0  0  0  0  0  0  0  0  0  0
    8.0421   -4.9917   -1.8298 C   0  0  0  0  0  0  0  0  0  0  0  0
    9.5984   -5.7105   -1.6144 Cl  0  0  0  0  0  0  0  0  0  0  0  0
    7.8889   -3.6524   -1.4586 C   0  0  0  0  0  0  0  0  0  0  0  0
    7.2512   -0.5781   -1.8387 C   0  0  0  0  0  0  0  0  0  0  0  0
    8.2425   -0.4767   -2.8900 C   0  0  0  0  0  0  0  0  0  0  0  0
    9.4955    0.0931   -2.6462 C   0  0  0  0  0  0  0  0  0  0  0  0
   10.4637    0.1153   -3.6530 C   0  0  0  0  0  0  0  0  0  0  0  0
   10.1809   -0.4188   -4.9104 C   0  0  0  0  0  0  0  0  0  0  0  0
    8.9298   -0.9743   -5.1667 C   0  0  0  0  0  0  0  0  0  0  0  0
    7.9656   -1.0057   -4.1595 C   0  0  0  0  0  0  0  0  0  0  0  0
    6.8531    0.5849   -1.2331 O   0  0  0  0  0  0  0  0  0  0  0  0
    2.7661   -0.9771    0.4960 N   0  0  0  0  0  0  0  0  0  0  0  0
    2.1400   -1.7979    1.5094 C   0  0  0  0  0  0  0  0  0  0  0  0
    2.6392   -3.2408    1.4624 C   0  0  0  0  0  0  0  0  0  0  0  0
    4.1350   -3.4167    1.7489 C   0  0  0  0  0  0  0  0  0  0  0  0
    4.6100   -2.9022    3.1092 C   0  0  0  0  0  0  0  0  0  0  0  0
    3.9589   -3.5878    4.3097 C   0  0  0  0  0  0  0  0  0  0  0  0
    4.1073   -5.1046    4.3293 C   0  0  0  0  0  0  0  0  0  0  0  0
    5.4954   -5.5310    4.4159 N   0  0  0  0  0  0  0  0  0  0  0  0
    6.0481   -6.5038    5.2088 C   0  0  0  0  0  0  0  0  0  0  0  0
    7.2689   -6.6313    5.2779 O   0  0  0  0  0  0  0  0  0  0  0  0
    5.1701   -7.3871    6.0044 C   0  0  0  0  0  0  0  0  0  0  0  0
    5.5042   -7.6522    7.3344 C   0  0  0  0  0  0  0  0  0  0  0  0
    4.6632   -8.4497    8.1128 C   0  0  0  0  0  0  0  0  0  0  0  0
    3.4638   -8.9503    7.5796 C   0  0  0  0  0  0  0  0  0  0  0  0
    2.5528   -9.7929    8.3960 C   0  0  0  0  0  0  0  0  0  0  0  0
    2.3002  -11.2229    7.9996 C   0  0  0  0  0  0  0  0  0  0  0  0
    1.4925  -12.1028    8.5369 N   0  0  0  0  0  0  0  0  0  0  0  0
    1.6224  -13.2526    7.7688 C   0  0  0  0  0  0  0  0  0  0  0  0
    1.0649  -14.4709    7.9670 C   0  0  0  0  0  0  0  0  0  0  0  0
    1.4223  -15.5635    7.0008 C   0  0  0  0  0  0  0  0  0  0  0  0
    2.7116  -16.1182    6.9715 C   0  0  0  0  0  0  0  0  0  0  0  0
    3.6725  -15.6359    7.7742 F   0  0  0  0  0  0  0  0  0  0  0  0
    3.0301  -17.1485    6.0911 C   0  0  0  0  0  0  0  0  0  0  0  0
    4.2800  -17.6302    6.0504 F   0  0  0  0  0  0  0  0  0  0  0  0
    2.0589  -17.6694    5.2501 C   0  0  0  0  0  0  0  0  0  0  0  0
    2.3629  -18.6708    4.4130 F   0  0  0  0  0  0  0  0  0  0  0  0
    0.7736  -17.1490    5.2737 C   0  0  0  0  0  0  0  0  0  0  0  0
   -0.1698  -17.6617    4.4715 F   0  0  0  0  0  0  0  0  0  0  0  0
    0.4603  -16.0964    6.1302 C   0  0  0  0  0  0  0  0  0  0  0  0
   -0.7886  -15.6068    6.1197 F   0  0  0  0  0  0  0  0  0  0  0  0
    0.1740  -14.7858    9.0522 C   0  0  0  0  0  0  0  0  0  0  0  0
   -0.4383  -15.9915    9.3462 C   0  0  0  0  0  0  0  0  0  0  0  0
   -1.2363  -15.8124   10.4804 C   0  0  0  0  0  0  0  0  0  0  0  0
   -1.0771  -14.5104   10.9258 C   0  0  0  0  0  0  0  0  0  0  0  0
   -0.2261  -13.8856   10.0287 N   0  0  0  0  0  0  0  0  0  0  0  0
   -1.6537  -13.8845   12.0872 C   0  0  0  0  0  0  0  0  0  0  0  0
   -2.4750  -14.7412   13.0080 C   0  0  0  0  0  0  0  0  0  0  0  0
   -3.8627  -14.5812   13.1333 C   0  0  0  0  0  0  0  0  0  0  0  0
   -4.4960  -13.6170   12.4483 F   0  0  0  0  0  0  0  0  0  0  0  0
   -4.5992  -15.3812   14.0031 C   0  0  0  0  0  0  0  0  0  0  0  0
   -5.9143  -15.1701   14.1523 F   0  0  0  0  0  0  0  0  0  0  0  0
   -3.9720  -16.3824   14.7296 C   0  0  0  0  0  0  0  0  0  0  0  0
   -4.6836  -17.1534   15.5632 F   0  0  0  0  0  0  0  0  0  0  0  0
   -2.6059  -16.5782   14.5988 C   0  0  0  0  0  0  0  0  0  0  0  0
   -2.0003  -17.5559   15.2869 F   0  0  0  0  0  0  0  0  0  0  0  0
   -1.8611  -15.7574   13.7574 C   0  0  0  0  0  0  0  0  0  0  0  0
   -0.5380  -15.9598   13.6671 F   0  0  0  0  0  0  0  0  0  0  0  0
   -1.4850  -12.5842   12.4316 C   0  0  0  0  0  0  0  0  0  0  0  0
   -0.7332  -11.6016   11.8006 N   0  0  0  0  0  0  0  0  0  0  0  0
   -0.9009  -10.5098   12.5067 C   0  0  0  0  0  0  0  0  0  0  0  0
   -0.2842   -9.1475   12.3190 C   0  0  0  0  0  0  0  0  0  0  0  0
   -0.6307   -8.0282   13.2362 C   0  0  0  0  0  0  0  0  0  0  0  0
   -0.2757   -8.0662   14.5926 C   0  0  0  0  0  0  0  0  0  0  0  0
    0.4103   -9.1127   15.0760 F   0  0  0  0  0  0  0  0  0  0  0  0
   -0.6782   -7.0629   15.4721 C   0  0  0  0  0  0  0  0  0  0  0  0
   -0.3867   -7.1623   16.7762 F   0  0  0  0  0  0  0  0  0  0  0  0
   -1.4056   -5.9792   15.0049 C   0  0  0  0  0  0  0  0  0  0  0  0
   -1.8000   -5.0190   15.8521 F   0  0  0  0  0  0  0  0  0  0  0  0
   -1.7354   -5.8996   13.6606 C   0  0  0  0  0  0  0  0  0  0  0  0
   -2.4244   -4.8460   13.2017 F   0  0  0  0  0  0  0  0  0  0  0  0
   -1.3643   -6.9203   12.7875 C   0  0  0  0  0  0  0  0  0  0  0  0
   -1.7230   -6.8287   11.4985 F   0  0  0  0  0  0  0  0  0  0  0  0
    0.5953   -8.9600   11.3163 C   0  0  0  0  0  0  0  0  0  0  0  0
    1.2913   -7.7117   11.0196 C   0  0  0  0  0  0  0  0  0  0  0  0
    2.0516   -7.8827    9.9258 C   0  0  0  0  0  0  0  0  0  0  0  0
    1.9242   -9.2660    9.4647 C   0  0  0  0  0  0  0  0  0  0  0  0
    1.0428   -9.8313   10.3528 N   0  0  0  0  0  0  0  0  0  0  0  0
   -1.8177  -10.6698   13.6442 C   0  0  0  0  0  0  0  0  0  0  0  0
   -2.0986  -11.9629   13.5856 C   0  0  0  0  0  0  0  0  0  0  0  0
    2.5288  -12.9402    6.6864 C   0  0  0  0  0  0  0  0  0  0  0  0
    3.0343  -11.7242    6.8261 C   0  0  0  0  0  0  0  0  0  0  0  0
    3.1454   -8.6810    6.2400 C   0  0  0  0  0  0  0  0  0  0  0  0
    4.0231   -7.9543    5.4414 C   0  0  0  0  0  0  0  0  0  0  0  0
    2.3421    1.4304   -1.6872 H   0  0  0  0  0  0  0  0  0  0  0  0
    3.5672    0.1513   -1.5779 H   0  0  0  0  0  0  0  0  0  0  0  0
    3.4404    2.4921    0.2602 H   0  0  0  0  0  0  0  0  0  0  0  0
    4.4476    2.3727   -1.2256 H   0  0  0  0  0  0  0  0  0  0  0  0
    4.7511    0.8022    1.2796 H   0  0  0  0  0  0  0  0  0  0  0  0
    5.8456    2.0166    0.5990 H   0  0  0  0  0  0  0  0  0  0  0  0
    4.6442   -3.2643   -2.2164 H   0  0  0  0  0  0  0  0  0  0  0  0
    4.9155   -5.5807   -2.8895 H   0  0  0  0  0  0  0  0  0  0  0  0
    8.6903   -3.1342   -1.0659 H   0  0  0  0  0  0  0  0  0  0  0  0
    9.7057    0.4982   -1.7206 H   0  0  0  0  0  0  0  0  0  0  0  0
   11.3909    0.5280   -3.4661 H   0  0  0  0  0  0  0  0  0  0  0  0
   10.8993   -0.4022   -5.6511 H   0  0  0  0  0  0  0  0  0  0  0  0
    8.7168   -1.3616   -6.0992 H   0  0  0  0  0  0  0  0  0  0  0  0
    7.0405   -1.4217   -4.3497 H   0  0  0  0  0  0  0  0  0  0  0  0
    3.6603   -1.2266    0.1683 H   0  0  0  0  0  0  0  0  0  0  0  0
    1.0815   -1.7928    1.3533 H   0  0  0  0  0  0  0  0  0  0  0  0
    2.3907   -1.3913    2.4669 H   0  0  0  0  0  0  0  0  0  0  0  0
    2.4400   -3.6296    0.4857 H   0  0  0  0  0  0  0  0  0  0  0  0
    2.1216   -3.7626    2.2401 H   0  0  0  0  0  0  0  0  0  0  0  0
    4.6796   -2.8943    0.9904 H   0  0  0  0  0  0  0  0  0  0  0  0
    4.3105   -4.4722    1.7564 H   0  0  0  0  0  0  0  0  0  0  0  0
    4.3939   -1.8557    3.1645 H   0  0  0  0  0  0  0  0  0  0  0  0
    5.6565   -3.1175    3.1670 H   0  0  0  0  0  0  0  0  0  0  0  0
    2.9147   -3.3544    4.3019 H   0  0  0  0  0  0  0  0  0  0  0  0
    4.4634   -3.2217    5.1794 H   0  0  0  0  0  0  0  0  0  0  0  0
    3.6824   -5.5019    3.4312 H   0  0  0  0  0  0  0  0  0  0  0  0
    3.6023   -5.4679    5.1999 H   0  0  0  0  0  0  0  0  0  0  0  0
    6.1236   -5.0565    3.8247 H   0  0  0  0  0  0  0  0  0  0  0  0
    6.3686   -7.2604    7.7398 H   0  0  0  0  0  0  0  0  0  0  0  0
    4.9243   -8.6728    9.0860 H   0  0  0  0  0  0  0  0  0  0  0  0
   -0.3254  -16.8715    8.8190 H   0  0  0  0  0  0  0  0  0  0  0  0
   -1.8411  -16.5285   10.9123 H   0  0  0  0  0  0  0  0  0  0  0  0
    0.0532  -12.9428   10.0771 H   0  0  0  0  0  0  0  0  0  0  0  0
    1.2119   -6.8380   11.5631 H   0  0  0  0  0  0  0  0  0  0  0  0
    2.6329   -7.1549    9.4814 H   0  0  0  0  0  0  0  0  0  0  0  0
    0.7582  -10.7725   10.3038 H   0  0  0  0  0  0  0  0  0  0  0  0
   -2.1545   -9.9602   14.3136 H   0  0  0  0  0  0  0  0  0  0  0  0
   -2.6809  -12.4635   14.2751 H   0  0  0  0  0  0  0  0  0  0  0  0
    2.7522  -13.5801    5.9081 H   0  0  0  0  0  0  0  0  0  0  0  0
    3.7555  -11.2510    6.2595 H   0  0  0  0  0  0  0  0  0  0  0  0
    2.2557   -9.0236    5.8449 H   0  0  0  0  0  0  0  0  0  0  0  0
    3.8276   -7.8343    4.4352 H   0  0  0  0  0  0  0  0  0  0  0  0
  1  2  2  0  0  0  0
  2  3  1  0  0  0  0
  2 25  1  0  0  0  0
  3  4  1  0  0  0  0
  3 98  1  0  0  0  0
  3 99  1  0  0  0  0
  4  5  1  0  0  0  0
  4100  1  0  0  0  0
  4101  1  0  0  0  0
  5  6  1  0  0  0  0
  5102  1  0  0  0  0
  5103  1  0  0  0  0
  6  7  2  0  0  0  0
  6 24  1  0  0  0  0
  7  8  1  0  0  0  0
  8  9  1  0  0  0  0
  8 17  2  0  0  0  0
  9 10  1  0  0  0  0
  9 16  2  0  0  0  0
 10 11  2  0  0  0  0
 10104  1  0  0  0  0
 11 12  1  0  0  0  0
 11105  1  0  0  0  0
 12 13  1  0  0  0  0
 12 14  2  0  0  0  0
 14 15  1  0  0  0  0
 14 16  1  0  0  0  0
 16106  1  0  0  0  0
 17 18  1  0  0  0  0
 17 24  1  0  0  0  0
 18 19  1  0  0  0  0
 18 23  2  0  0  0  0
 19 20  2  0  0  0  0
 19107  1  0  0  0  0
 20 21  1  0  0  0  0
 20108  1  0  0  0  0
 21 22  2  0  0  0  0
 21109  1  0  0  0  0
 22 23  1  0  0  0  0
 22110  1  0  0  0  0
 23111  1  0  0  0  0
 25 26  1  0  0  0  0
 25112  1  0  0  0  0
 26 27  1  0  0  0  0
 26113  1  0  0  0  0
 26114  1  0  0  0  0
 27 28  1  0  0  0  0
 27115  1  0  0  0  0
 27116  1  0  0  0  0
 28 29  1  0  0  0  0
 28117  1  0  0  0  0
 28118  1  0  0  0  0
 29 30  1  0  0  0  0
 29119  1  0  0  0  0
 29120  1  0  0  0  0
 30 31  1  0  0  0  0
 30121  1  0  0  0  0
 30122  1  0  0  0  0
 31 32  1  0  0  0  0
 31123  1  0  0  0  0
 31124  1  0  0  0  0
 32 33  1  0  0  0  0
 32125  1  0  0  0  0
 33 34  2  0  0  0  0
 33 35  1  0  0  0  0
 35 36  1  0  0  0  0
 35 97  2  0  0  0  0
 36 37  2  0  0  0  0
 36126  1  0  0  0  0
 37 38  1  0  0  0  0
 37127  1  0  0  0  0
 38 39  1  0  0  0  0
 38 96  2  0  0  0  0
 39 40  1  0  0  0  0
 39 90  2  0  0  0  0
 40 41  2  0  0  0  0
 40 95  1  0  0  0  0
 41 42  1  0  0  0  0
 42 43  2  0  0  0  0
 42 94  1  0  0  0  0
 43 44  1  0  0  0  0
 43 55  1  0  0  0  0
 44 45  1  0  0  0  0
 44 53  2  0  0  0  0
 45 46  1  0  0  0  0
 45 47  2  0  0  0  0
 47 48  1  0  0  0  0
 47 49  1  0  0  0  0
 49 50  1  0  0  0  0
 49 51  2  0  0  0  0
 51 52  1  0  0  0  0
 51 53  1  0  0  0  0
 53 54  1  0  0  0  0
 55 56  2  0  0  0  0
 55 59  1  0  0  0  0
 56 57  1  0  0  0  0
 56128  1  0  0  0  0
 57 58  2  0  0  0  0
 57129  1  0  0  0  0
 58 59  1  0  0  0  0
 58 60  1  0  0  0  0
 59130  1  0  0  0  0
 60 61  1  0  0  0  0
 60 72  2  0  0  0  0
 61 62  1  0  0  0  0
 61 70  2  0  0  0  0
 62 63  1  0  0  0  0
 62 64  2  0  0  0  0
 64 65  1  0  0  0  0
 64 66  1  0  0  0  0
 66 67  1  0  0  0  0
 66 68  2  0  0  0  0
 68 69  1  0  0  0  0
 68 70  1  0  0  0  0
 70 71  1  0  0  0  0
 72 73  1  0  0  0  0
 72 93  1  0  0  0  0
 73 74  2  0  0  0  0
 74 75  1  0  0  0  0
 74 92  1  0  0  0  0
 75 76  1  0  0  0  0
 75 87  2  0  0  0  0
 76 77  1  0  0  0  0
 76 85  2  0  0  0  0
 77 78  1  0  0  0  0
 77 79  2  0  0  0  0
 79 80  1  0  0  0  0
 79 81  1  0  0  0  0
 81 82  1  0  0  0  0
 81 83  2  0  0  0  0
 83 84  1  0  0  0  0
 83 85  1  0  0  0  0
 85 86  1  0  0  0  0
 87 88  1  0  0  0  0
 87 91  1  0  0  0  0
 88 89  2  0  0  0  0
 88131  1  0  0  0  0
 89 90  1  0  0  0  0
 89132  1  0  0  0  0
 90 91  1  0  0  0  0
 91133  1  0  0  0  0
 92 93  2  0  0  0  0
 92134  1  0  0  0  0
 93135  1  0  0  0  0
 94 95  2  0  0  0  0
 94136  1  0  0  0  0
 95137  1  0  0  0  0
 96 97  1  0  0  0  0
 96138  1  0  0  0  0
 97139  1  0  0  0  0
M  END
$$$$
