1_1_3485
 OpenBabel01102313213D

136145  0  0  0  0  0  0  0  0999 V2000
   -0.2635   -1.1345    2.1600 C   0  0  0  0  0  0  0  0  0  0  0  0
   -1.2011   -0.0255    2.5664 C   0  0  0  0  0  0  0  0  0  0  0  0
   -2.4150   -0.0947    2.5877 O   0  0  0  0  0  0  0  0  0  0  0  0
   -0.4188    1.0822    2.8898 O   0  0  0  0  0  0  0  0  0  0  0  0
   -0.7783    2.4357    3.1363 C   0  0  0  0  0  0  0  0  0  0  0  0
    0.0634    3.0508    4.0818 C   0  0  0  0  0  0  0  0  0  0  0  0
    0.0002    4.4255    4.3022 C   0  0  0  0  0  0  0  0  0  0  0  0
   -0.9379    5.1849    3.6177 C   0  0  0  0  0  0  0  0  0  0  0  0
   -1.7633    4.5744    2.6716 C   0  0  0  0  0  0  0  0  0  0  0  0
   -1.6501    3.2034    2.3582 C   0  0  0  0  0  0  0  0  0  0  0  0
   -2.5463    2.7723    0.8876 S   0  0  0  0  0  0  0  0  0  0  0  0
   -1.4733    1.7106   -0.1280 C   0  0  0  0  0  0  0  0  0  0  0  0
    0.0186    1.9014   -0.4541 C   0  0  0  0  0  0  0  0  0  0  0  0
    1.0256    2.6163    0.4537 C   0  0  0  0  0  0  0  0  0  0  0  0
    2.1211    1.7988    1.1718 C   0  0  0  0  0  0  0  0  0  0  0  0
    2.8707    0.7006    0.4154 C   0  0  0  0  0  0  0  0  0  0  0  0
    4.2024    1.1376   -0.1586 C   0  0  0  0  0  0  0  0  0  0  0  0
    5.2507    0.9844    0.4676 O   0  0  0  0  0  0  0  0  0  0  0  0
    4.2527    1.6899   -1.4000 N   0  0  0  0  0  0  0  0  0  0  0  0
    3.1560    2.0829   -2.2528 C   0  0  0  0  0  0  0  0  0  0  0  0
    2.9434    3.5927   -2.1761 C   0  0  0  0  0  0  0  0  0  0  0  0
    3.6021    4.3596   -3.3126 C   0  0  0  0  0  0  0  0  0  0  0  0
    2.9794    4.0719   -4.6820 C   0  0  0  0  0  0  0  0  0  0  0  0
    1.4662    4.3067   -4.7738 C   0  0  0  0  0  0  0  0  0  0  0  0
    1.0103    5.6896   -4.3134 C   0  0  0  0  0  0  0  0  0  0  0  0
    1.7424    6.7428   -4.9984 N   0  0  0  0  0  0  0  0  0  0  0  0
    1.3234    7.6046   -5.9754 C   0  0  0  0  0  0  0  0  0  0  0  0
    2.1423    8.2054   -6.6630 O   0  0  0  0  0  0  0  0  0  0  0  0
   -0.1195    7.8151   -6.1943 C   0  0  0  0  0  0  0  0  0  0  0  0
   -0.6036    7.8901   -7.5017 C   0  0  0  0  0  0  0  0  0  0  0  0
   -1.9662    8.0919   -7.7197 C   0  0  0  0  0  0  0  0  0  0  0  0
   -2.8523    8.1776   -6.6331 C   0  0  0  0  0  0  0  0  0  0  0  0
   -4.3090    8.3527   -6.8453 C   0  0  0  0  0  0  0  0  0  0  0  0
   -4.9936    9.6048   -6.3758 C   0  0  0  0  0  0  0  0  0  0  0  0
   -6.2647    9.9162   -6.4088 N   0  0  0  0  0  0  0  0  0  0  0  0
   -6.3617   11.1675   -5.8151 C   0  0  0  0  0  0  0  0  0  0  0  0
   -7.4561   11.9535   -5.6761 C   0  0  0  0  0  0  0  0  0  0  0  0
   -7.2698   13.2873   -5.0098 C   0  0  0  0  0  0  0  0  0  0  0  0
   -6.5373   14.3183   -5.6198 C   0  0  0  0  0  0  0  0  0  0  0  0
   -5.9549   14.1190   -6.8120 F   0  0  0  0  0  0  0  0  0  0  0  0
   -6.3586   15.5451   -4.9856 C   0  0  0  0  0  0  0  0  0  0  0  0
   -5.6055   16.4920   -5.5622 F   0  0  0  0  0  0  0  0  0  0  0  0
   -6.9427   15.7815   -3.7508 C   0  0  0  0  0  0  0  0  0  0  0  0
   -6.7736   16.9641   -3.1434 F   0  0  0  0  0  0  0  0  0  0  0  0
   -7.6947   14.7884   -3.1419 C   0  0  0  0  0  0  0  0  0  0  0  0
   -8.2718   15.0204   -1.9547 F   0  0  0  0  0  0  0  0  0  0  0  0
   -7.8466   13.5484   -3.7579 C   0  0  0  0  0  0  0  0  0  0  0  0
   -8.5622   12.6023   -3.1314 F   0  0  0  0  0  0  0  0  0  0  0  0
   -8.7732   11.5878   -6.1277 C   0  0  0  0  0  0  0  0  0  0  0  0
   -9.9408   12.3281   -6.0770 C   0  0  0  0  0  0  0  0  0  0  0  0
  -10.9803   11.5402   -6.5826 C   0  0  0  0  0  0  0  0  0  0  0  0
  -10.4510   10.3303   -7.0029 C   0  0  0  0  0  0  0  0  0  0  0  0
   -9.0971   10.3699   -6.7099 N   0  0  0  0  0  0  0  0  0  0  0  0
  -11.1299    9.2219   -7.6262 C   0  0  0  0  0  0  0  0  0  0  0  0
  -12.6019    9.3635   -7.8882 C   0  0  0  0  0  0  0  0  0  0  0  0
  -13.5538    8.6269   -7.1681 C   0  0  0  0  0  0  0  0  0  0  0  0
  -13.1610    7.7287   -6.2521 F   0  0  0  0  0  0  0  0  0  0  0  0
  -14.9151    8.7808   -7.4169 C   0  0  0  0  0  0  0  0  0  0  0  0
  -15.8045    8.0296   -6.7529 F   0  0  0  0  0  0  0  0  0  0  0  0
  -15.3516    9.6989   -8.3604 C   0  0  0  0  0  0  0  0  0  0  0  0
  -16.6626    9.8515   -8.5923 F   0  0  0  0  0  0  0  0  0  0  0  0
  -14.4289   10.4530   -9.0690 C   0  0  0  0  0  0  0  0  0  0  0  0
  -14.8490   11.3515   -9.9702 F   0  0  0  0  0  0  0  0  0  0  0  0
  -13.0663   10.2778   -8.8464 C   0  0  0  0  0  0  0  0  0  0  0  0
  -12.1978   11.0121   -9.5579 F   0  0  0  0  0  0  0  0  0  0  0  0
  -10.5383    8.0667   -8.0189 C   0  0  0  0  0  0  0  0  0  0  0  0
   -9.2056    7.6904   -7.9229 N   0  0  0  0  0  0  0  0  0  0  0  0
   -9.1349    6.4802   -8.4223 C   0  0  0  0  0  0  0  0  0  0  0  0
   -7.9320    5.5940   -8.5976 C   0  0  0  0  0  0  0  0  0  0  0  0
   -8.0581    4.2314   -9.1768 C   0  0  0  0  0  0  0  0  0  0  0  0
   -8.3914    4.0480  -10.5257 C   0  0  0  0  0  0  0  0  0  0  0  0
   -8.6276    5.1119  -11.3074 F   0  0  0  0  0  0  0  0  0  0  0  0
   -8.5200    2.7711  -11.0683 C   0  0  0  0  0  0  0  0  0  0  0  0
   -8.8825    2.6238  -12.3498 F   0  0  0  0  0  0  0  0  0  0  0  0
   -8.2860    1.6535  -10.2813 C   0  0  0  0  0  0  0  0  0  0  0  0
   -8.4015    0.4259  -10.8058 F   0  0  0  0  0  0  0  0  0  0  0  0
   -7.9368    1.8102   -8.9487 C   0  0  0  0  0  0  0  0  0  0  0  0
   -7.6912    0.7338   -8.1895 F   0  0  0  0  0  0  0  0  0  0  0  0
   -7.8380    3.0858   -8.3977 C   0  0  0  0  0  0  0  0  0  0  0  0
   -7.5069    3.2066   -7.1037 F   0  0  0  0  0  0  0  0  0  0  0  0
   -6.7208    6.0573   -8.2364 C   0  0  0  0  0  0  0  0  0  0  0  0
   -5.4632    5.3266   -8.3585 C   0  0  0  0  0  0  0  0  0  0  0  0
   -4.4716    6.0757   -7.8519 C   0  0  0  0  0  0  0  0  0  0  0  0
   -5.0205    7.3564   -7.4044 C   0  0  0  0  0  0  0  0  0  0  0  0
   -6.3609    7.2589   -7.6783 N   0  0  0  0  0  0  0  0  0  0  0  0
  -10.4252    5.9401   -8.8706 C   0  0  0  0  0  0  0  0  0  0  0  0
  -11.2380    6.9619   -8.6421 C   0  0  0  0  0  0  0  0  0  0  0  0
   -5.0330   11.5308   -5.3732 C   0  0  0  0  0  0  0  0  0  0  0  0
   -4.1397   10.6333   -5.7610 C   0  0  0  0  0  0  0  0  0  0  0  0
   -2.3502    8.1086   -5.3254 C   0  0  0  0  0  0  0  0  0  0  0  0
   -0.9833    7.9830   -5.1081 C   0  0  0  0  0  0  0  0  0  0  0  0
   -0.8305   -2.0049    1.9036 H   0  0  0  0  0  0  0  0  0  0  0  0
    0.3925   -1.3631    2.9738 H   0  0  0  0  0  0  0  0  0  0  0  0
    0.3128   -0.8223    1.3142 H   0  0  0  0  0  0  0  0  0  0  0  0
    0.7343    2.4780    4.6174 H   0  0  0  0  0  0  0  0  0  0  0  0
    0.6463    4.8753    4.9695 H   0  0  0  0  0  0  0  0  0  0  0  0
   -1.0250    6.1957    3.8070 H   0  0  0  0  0  0  0  0  0  0  0  0
   -2.4765    5.1421    2.1877 H   0  0  0  0  0  0  0  0  0  0  0  0
   -1.9557    1.6731   -1.0823 H   0  0  0  0  0  0  0  0  0  0  0  0
   -1.3856    0.8825    0.5439 H   0  0  0  0  0  0  0  0  0  0  0  0
    0.0435    2.4315   -1.3832 H   0  0  0  0  0  0  0  0  0  0  0  0
    0.3667    0.8926   -0.3768 H   0  0  0  0  0  0  0  0  0  0  0  0
    0.4601    3.1130    1.2142 H   0  0  0  0  0  0  0  0  0  0  0  0
    1.5781    3.2334   -0.2236 H   0  0  0  0  0  0  0  0  0  0  0  0
    1.6563    1.3320    2.0150 H   0  0  0  0  0  0  0  0  0  0  0  0
    2.8812    2.5250    1.3712 H   0  0  0  0  0  0  0  0  0  0  0  0
    2.2516    0.3664   -0.3908 H   0  0  0  0  0  0  0  0  0  0  0  0
    3.0814   -0.0718    1.1253 H   0  0  0  0  0  0  0  0  0  0  0  0
    5.1544    1.8416   -1.7649 H   0  0  0  0  0  0  0  0  0  0  0  0
    2.2646    1.5838   -1.9348 H   0  0  0  0  0  0  0  0  0  0  0  0
    3.3850    1.8134   -3.2627 H   0  0  0  0  0  0  0  0  0  0  0  0
    3.3492    3.9447   -1.2508 H   0  0  0  0  0  0  0  0  0  0  0  0
    1.8900    3.7651   -2.2507 H   0  0  0  0  0  0  0  0  0  0  0  0
    4.6373    4.0912   -3.3476 H   0  0  0  0  0  0  0  0  0  0  0  0
    3.4608    5.4015   -3.1141 H   0  0  0  0  0  0  0  0  0  0  0  0
    3.1707    3.0473   -4.9239 H   0  0  0  0  0  0  0  0  0  0  0  0
    3.4290    4.7632   -5.3638 H   0  0  0  0  0  0  0  0  0  0  0  0
    0.9770    3.5742   -4.1663 H   0  0  0  0  0  0  0  0  0  0  0  0
    1.2090    4.2310   -5.8097 H   0  0  0  0  0  0  0  0  0  0  0  0
    1.1760    5.7784   -3.2600 H   0  0  0  0  0  0  0  0  0  0  0  0
   -0.0292    5.7964   -4.5436 H   0  0  0  0  0  0  0  0  0  0  0  0
    2.6796    6.8522   -4.7173 H   0  0  0  0  0  0  0  0  0  0  0  0
    0.0423    7.7969   -8.3011 H   0  0  0  0  0  0  0  0  0  0  0  0
   -2.3250    8.1786   -8.6834 H   0  0  0  0  0  0  0  0  0  0  0  0
  -10.0296   13.2947   -5.7267 H   0  0  0  0  0  0  0  0  0  0  0  0
  -11.9740   11.8139   -6.6340 H   0  0  0  0  0  0  0  0  0  0  0  0
   -8.4590    9.6417   -6.8883 H   0  0  0  0  0  0  0  0  0  0  0  0
   -5.3541    4.3857   -8.7683 H   0  0  0  0  0  0  0  0  0  0  0  0
   -3.4809    5.7938   -7.7881 H   0  0  0  0  0  0  0  0  0  0  0  0
   -7.0034    7.9814   -7.4925 H   0  0  0  0  0  0  0  0  0  0  0  0
  -10.6419    5.0097   -9.2609 H   0  0  0  0  0  0  0  0  0  0  0  0
  -12.2426    6.9694   -8.8784 H   0  0  0  0  0  0  0  0  0  0  0  0
   -4.8105   12.3780   -4.8275 H   0  0  0  0  0  0  0  0  0  0  0  0
   -3.1129   10.6507   -5.6587 H   0  0  0  0  0  0  0  0  0  0  0  0
   -2.9973    8.1512   -4.5226 H   0  0  0  0  0  0  0  0  0  0  0  0
   -0.6070    8.0136   -4.1476 H   0  0  0  0  0  0  0  0  0  0  0  0
  1  2  1  0  0  0  0
  1 92  1  0  0  0  0
  1 93  1  0  0  0  0
  1 94  1  0  0  0  0
  2  3  2  0  0  0  0
  2  4  1  0  0  0  0
  4  5  1  0  0  0  0
  5  6  1  0  0  0  0
  5 10  2  0  0  0  0
  6  7  2  0  0  0  0
  6 95  1  0  0  0  0
  7  8  1  0  0  0  0
  7 96  1  0  0  0  0
  8  9  2  0  0  0  0
  8 97  1  0  0  0  0
  9 10  1  0  0  0  0
  9 98  1  0  0  0  0
 10 11  1  0  0  0  0
 11 12  1  0  0  0  0
 12 13  1  0  0  0  0
 12 99  1  0  0  0  0
 12100  1  0  0  0  0
 13 14  1  0  0  0  0
 13101  1  0  0  0  0
 13102  1  0  0  0  0
 14 15  1  0  0  0  0
 14103  1  0  0  0  0
 14104  1  0  0  0  0
 15 16  1  0  0  0  0
 15105  1  0  0  0  0
 15106  1  0  0  0  0
 16 17  1  0  0  0  0
 16107  1  0  0  0  0
 16108  1  0  0  0  0
 17 18  2  0  0  0  0
 17 19  1  0  0  0  0
 19 20  1  0  0  0  0
 19109  1  0  0  0  0
 20 21  1  0  0  0  0
 20110  1  0  0  0  0
 20111  1  0  0  0  0
 21 22  1  0  0  0  0
 21112  1  0  0  0  0
 21113  1  0  0  0  0
 22 23  1  0  0  0  0
 22114  1  0  0  0  0
 22115  1  0  0  0  0
 23 24  1  0  0  0  0
 23116  1  0  0  0  0
 23117  1  0  0  0  0
 24 25  1  0  0  0  0
 24118  1  0  0  0  0
 24119  1  0  0  0  0
 25 26  1  0  0  0  0
 25120  1  0  0  0  0
 25121  1  0  0  0  0
 26 27  1  0  0  0  0
 26122  1  0  0  0  0
 27 28  2  0  0  0  0
 27 29  1  0  0  0  0
 29 30  1  0  0  0  0
 29 91  2  0  0  0  0
 30 31  2  0  0  0  0
 30123  1  0  0  0  0
 31 32  1  0  0  0  0
 31124  1  0  0  0  0
 32 33  1  0  0  0  0
 32 90  2  0  0  0  0
 33 34  1  0  0  0  0
 33 84  2  0  0  0  0
 34 35  2  0  0  0  0
 34 89  1  0  0  0  0
 35 36  1  0  0  0  0
 36 37  2  0  0  0  0
 36 88  1  0  0  0  0
 37 38  1  0  0  0  0
 37 49  1  0  0  0  0
 38 39  1  0  0  0  0
 38 47  2  0  0  0  0
 39 40  1  0  0  0  0
 39 41  2  0  0  0  0
 41 42  1  0  0  0  0
 41 43  1  0  0  0  0
 43 44  1  0  0  0  0
 43 45  2  0  0  0  0
 45 46  1  0  0  0  0
 45 47  1  0  0  0  0
 47 48  1  0  0  0  0
 49 50  2  0  0  0  0
 49 53  1  0  0  0  0
 50 51  1  0  0  0  0
 50125  1  0  0  0  0
 51 52  2  0  0  0  0
 51126  1  0  0  0  0
 52 53  1  0  0  0  0
 52 54  1  0  0  0  0
 53127  1  0  0  0  0
 54 55  1  0  0  0  0
 54 66  2  0  0  0  0
 55 56  1  0  0  0  0
 55 64  2  0  0  0  0
 56 57  1  0  0  0  0
 56 58  2  0  0  0  0
 58 59  1  0  0  0  0
 58 60  1  0  0  0  0
 60 61  1  0  0  0  0
 60 62  2  0  0  0  0
 62 63  1  0  0  0  0
 62 64  1  0  0  0  0
 64 65  1  0  0  0  0
 66 67  1  0  0  0  0
 66 87  1  0  0  0  0
 67 68  2  0  0  0  0
 68 69  1  0  0  0  0
 68 86  1  0  0  0  0
 69 70  1  0  0  0  0
 69 81  2  0  0  0  0
 70 71  1  0  0  0  0
 70 79  2  0  0  0  0
 71 72  1  0  0  0  0
 71 73  2  0  0  0  0
 73 74  1  0  0  0  0
 73 75  1  0  0  0  0
 75 76  1  0  0  0  0
 75 77  2  0  0  0  0
 77 78  1  0  0  0  0
 77 79  1  0  0  0  0
 79 80  1  0  0  0  0
 81 82  1  0  0  0  0
 81 85  1  0  0  0  0
 82 83  2  0  0  0  0
 82128  1  0  0  0  0
 83 84  1  0  0  0  0
 83129  1  0  0  0  0
 84 85  1  0  0  0  0
 85130  1  0  0  0  0
 86 87  2  0  0  0  0
 86131  1  0  0  0  0
 87132  1  0  0  0  0
 88 89  2  0  0  0  0
 88133  1  0  0  0  0
 89134  1  0  0  0  0
 90 91  1  0  0  0  0
 90135  1  0  0  0  0
 91136  1  0  0  0  0
M  END
$$$$
