1_1_2612
 OpenBabel01102313203D

130140  0  0  0  0  0  0  0  0999 V2000
    0.8371   -0.4040    0.1917 C   0  0  0  0  0  0  0  0  0  0  0  0
    0.3966    0.0650   -1.1995 C   0  0  1  0  0  0  0  0  0  0  0  0
    0.9853   -0.7695   -2.3497 C   0  0  0  0  0  0  0  0  0  0  0  0
    0.2965   -1.4175   -3.1406 O   0  0  0  0  0  0  0  0  0  0  0  0
    2.3284   -0.7590   -2.5888 N   0  0  0  0  0  0  0  0  0  0  0  0
    3.4090   -0.1049   -1.8833 C   0  0  0  0  0  0  0  0  0  0  0  0
    4.2373   -1.1120   -1.0831 C   0  0  0  0  0  0  0  0  0  0  0  0
    4.9584   -2.1637   -1.9372 C   0  0  0  0  0  0  0  0  0  0  0  0
    5.8849   -1.6074   -3.0227 C   0  0  0  0  0  0  0  0  0  0  0  0
    6.9415   -0.6140   -2.5340 C   0  0  0  0  0  0  0  0  0  0  0  0
    7.8868   -1.1556   -1.4676 C   0  0  0  0  0  0  0  0  0  0  0  0
    8.7168   -2.2393   -1.9639 N   0  0  0  0  0  0  0  0  0  0  0  0
   10.0645   -2.4366   -1.8166 C   0  0  0  0  0  0  0  0  0  0  0  0
   10.6277   -3.3294   -2.4502 O   0  0  0  0  0  0  0  0  0  0  0  0
   10.8557   -1.5751   -0.9114 C   0  0  0  0  0  0  0  0  0  0  0  0
   12.1190   -1.1451   -1.3287 C   0  0  0  0  0  0  0  0  0  0  0  0
   12.8976   -0.3494   -0.4858 C   0  0  0  0  0  0  0  0  0  0  0  0
   12.4060    0.0479    0.7676 C   0  0  0  0  0  0  0  0  0  0  0  0
   13.2362    0.8639    1.6884 C   0  0  0  0  0  0  0  0  0  0  0  0
   13.7244    0.2704    2.9817 C   0  0  0  0  0  0  0  0  0  0  0  0
   14.4296    0.8250    3.9357 N   0  0  0  0  0  0  0  0  0  0  0  0
   14.5554   -0.1428    4.9238 C   0  0  0  0  0  0  0  0  0  0  0  0
   15.2452   -0.0789    6.0878 C   0  0  0  0  0  0  0  0  0  0  0  0
   15.1969   -1.2790    6.9880 C   0  0  0  0  0  0  0  0  0  0  0  0
   15.8463   -2.4773    6.6542 C   0  0  0  0  0  0  0  0  0  0  0  0
   16.5030   -2.5871    5.4895 F   0  0  0  0  0  0  0  0  0  0  0  0
   15.7855   -3.5844    7.4966 C   0  0  0  0  0  0  0  0  0  0  0  0
   16.3693   -4.7343    7.1319 F   0  0  0  0  0  0  0  0  0  0  0  0
   15.1079   -3.5042    8.7037 C   0  0  0  0  0  0  0  0  0  0  0  0
   15.0534   -4.5694    9.5151 F   0  0  0  0  0  0  0  0  0  0  0  0
   14.4793   -2.3223    9.0655 C   0  0  0  0  0  0  0  0  0  0  0  0
   13.8335   -2.2398   10.2370 F   0  0  0  0  0  0  0  0  0  0  0  0
   14.5129   -1.2227    8.2117 C   0  0  0  0  0  0  0  0  0  0  0  0
   13.8793   -0.0996    8.5818 F   0  0  0  0  0  0  0  0  0  0  0  0
   16.0181    1.0594    6.5085 C   0  0  0  0  0  0  0  0  0  0  0  0
   16.8068    1.1996    7.6370 C   0  0  0  0  0  0  0  0  0  0  0  0
   17.3424    2.4924    7.6382 C   0  0  0  0  0  0  0  0  0  0  0  0
   16.9218    3.1418    6.4888 C   0  0  0  0  0  0  0  0  0  0  0  0
   16.1030    2.2544    5.8096 N   0  0  0  0  0  0  0  0  0  0  0  0
   17.2441    4.4718    6.0407 C   0  0  0  0  0  0  0  0  0  0  0  0
   18.2003    5.2752    6.8716 C   0  0  0  0  0  0  0  0  0  0  0  0
   17.7720    6.3650    7.6429 C   0  0  0  0  0  0  0  0  0  0  0  0
   16.4859    6.7461    7.6172 F   0  0  0  0  0  0  0  0  0  0  0  0
   18.6746    7.0937    8.4127 C   0  0  0  0  0  0  0  0  0  0  0  0
   18.2527    8.1608    9.1050 F   0  0  0  0  0  0  0  0  0  0  0  0
   20.0119    6.7271    8.4522 C   0  0  0  0  0  0  0  0  0  0  0  0
   20.8781    7.4278    9.1969 F   0  0  0  0  0  0  0  0  0  0  0  0
   20.4528    5.6399    7.7131 C   0  0  0  0  0  0  0  0  0  0  0  0
   21.7422    5.2773    7.7592 F   0  0  0  0  0  0  0  0  0  0  0  0
   19.5586    4.9263    6.9208 C   0  0  0  0  0  0  0  0  0  0  0  0
   20.0163    3.8874    6.2061 F   0  0  0  0  0  0  0  0  0  0  0  0
   16.7683    5.0490    4.9102 C   0  0  0  0  0  0  0  0  0  0  0  0
   15.9185    4.5177    3.9496 N   0  0  0  0  0  0  0  0  0  0  0  0
   15.7497    5.4616    3.0561 C   0  0  0  0  0  0  0  0  0  0  0  0
   14.9620    5.4281    1.7743 C   0  0  0  0  0  0  0  0  0  0  0  0
   14.9226    6.6108    0.8768 C   0  0  0  0  0  0  0  0  0  0  0  0
   16.0651    7.0104    0.1692 C   0  0  0  0  0  0  0  0  0  0  0  0
   17.2121    6.3300    0.3118 F   0  0  0  0  0  0  0  0  0  0  0  0
   16.0457    8.1338   -0.6541 C   0  0  0  0  0  0  0  0  0  0  0  0
   17.1636    8.5190   -1.2845 F   0  0  0  0  0  0  0  0  0  0  0  0
   14.8762    8.8625   -0.8080 C   0  0  0  0  0  0  0  0  0  0  0  0
   14.8570    9.9423   -1.6011 F   0  0  0  0  0  0  0  0  0  0  0  0
   13.7284    8.4751   -0.1322 C   0  0  0  0  0  0  0  0  0  0  0  0
   12.5935    9.1702   -0.2880 F   0  0  0  0  0  0  0  0  0  0  0  0
   13.7536    7.3662    0.7113 C   0  0  0  0  0  0  0  0  0  0  0  0
   12.6330    7.0216    1.3623 F   0  0  0  0  0  0  0  0  0  0  0  0
   14.3284    4.2941    1.4203 C   0  0  0  0  0  0  0  0  0  0  0  0
   13.5524    4.0994    0.1987 C   0  0  0  0  0  0  0  0  0  0  0  0
   13.0655    2.8476    0.1834 C   0  0  0  0  0  0  0  0  0  0  0  0
   13.5176    2.1447    1.3841 C   0  0  0  0  0  0  0  0  0  0  0  0
   14.2503    3.0843    2.0649 N   0  0  0  0  0  0  0  0  0  0  0  0
   16.4469    6.7166    3.3705 C   0  0  0  0  0  0  0  0  0  0  0  0
   17.0863    6.3968    4.4866 C   0  0  0  0  0  0  0  0  0  0  0  0
   13.8155   -1.3027    4.4776 C   0  0  0  0  0  0  0  0  0  0  0  0
   13.3452   -1.1253    3.2523 C   0  0  0  0  0  0  0  0  0  0  0  0
   11.1330   -0.3812    1.1725 C   0  0  0  0  0  0  0  0  0  0  0  0
   10.3850   -1.2299    0.3593 C   0  0  0  0  0  0  0  0  0  0  0  0
   -1.1243    0.1266   -1.2533 C   0  0  0  0  0  0  0  0  0  0  0  0
   -1.7762    1.3370   -1.5246 C   0  0  0  0  0  0  0  0  0  0  0  0
   -3.1727    1.4037   -1.5290 C   0  0  0  0  0  0  0  0  0  0  0  0
   -3.9496    0.2675   -1.2544 C   0  0  0  0  0  0  0  0  0  0  0  0
   -5.4581    0.3541   -1.2026 C   0  0  0  0  0  0  0  0  0  0  0  0
   -5.9657    1.0081    0.0367 C   0  0  0  0  0  0  0  0  0  0  0  0
   -5.8303    2.2742    0.5717 C   0  0  0  0  0  0  0  0  0  0  0  0
   -6.5765    2.2861    1.7735 C   0  0  0  0  0  0  0  0  0  0  0  0
   -7.1259    1.0321    1.8939 C   0  0  0  0  0  0  0  0  0  0  0  0
   -6.7625    0.2496    0.8453 O   0  0  0  0  0  0  0  0  0  0  0  0
   -3.2997   -0.9462   -1.0062 C   0  0  0  0  0  0  0  0  0  0  0  0
   -1.9092   -1.0086   -1.0135 C   0  0  0  0  0  0  0  0  0  0  0  0
   -1.3261   -2.1884   -0.7560 F   0  0  0  0  0  0  0  0  0  0  0  0
    1.9055   -0.4480    0.2316 H   0  0  0  0  0  0  0  0  0  0  0  0
    0.4327   -1.3756    0.3852 H   0  0  0  0  0  0  0  0  0  0  0  0
    0.4807    0.2841    0.9295 H   0  0  0  0  0  0  0  0  0  0  0  0
    0.7955    1.0463   -1.3507 H   0  0  0  0  0  0  0  0  0  0  0  0
    2.6093   -1.2844   -3.3725 H   0  0  0  0  0  0  0  0  0  0  0  0
    2.9989    0.6209   -1.2125 H   0  0  0  0  0  0  0  0  0  0  0  0
    4.0480    0.3640   -2.6021 H   0  0  0  0  0  0  0  0  0  0  0  0
    3.5824   -1.6217   -0.4076 H   0  0  0  0  0  0  0  0  0  0  0  0
    4.9992   -0.5510   -0.5835 H   0  0  0  0  0  0  0  0  0  0  0  0
    4.2149   -2.7666   -2.4153 H   0  0  0  0  0  0  0  0  0  0  0  0
    5.5872   -2.7084   -1.2644 H   0  0  0  0  0  0  0  0  0  0  0  0
    5.2790   -1.1130   -3.7531 H   0  0  0  0  0  0  0  0  0  0  0  0
    6.4241   -2.4464   -3.4102 H   0  0  0  0  0  0  0  0  0  0  0  0
    6.4353    0.2370   -2.1283 H   0  0  0  0  0  0  0  0  0  0  0  0
    7.5492   -0.3802   -3.3831 H   0  0  0  0  0  0  0  0  0  0  0  0
    7.3061   -1.5165   -0.6445 H   0  0  0  0  0  0  0  0  0  0  0  0
    8.5347   -0.3579   -1.1696 H   0  0  0  0  0  0  0  0  0  0  0  0
    8.2431   -2.9311   -2.4800 H   0  0  0  0  0  0  0  0  0  0  0  0
   12.4756   -1.4155   -2.2586 H   0  0  0  0  0  0  0  0  0  0  0  0
   13.8392   -0.0519   -0.7858 H   0  0  0  0  0  0  0  0  0  0  0  0
   16.9715    0.4757    8.3539 H   0  0  0  0  0  0  0  0  0  0  0  0
   17.9480    2.8940    8.3710 H   0  0  0  0  0  0  0  0  0  0  0  0
   15.6486    2.4440    4.9570 H   0  0  0  0  0  0  0  0  0  0  0  0
   13.4022    4.8095   -0.5350 H   0  0  0  0  0  0  0  0  0  0  0  0
   12.4684    2.4462   -0.5565 H   0  0  0  0  0  0  0  0  0  0  0  0
   14.6793    2.9077    2.9332 H   0  0  0  0  0  0  0  0  0  0  0  0
   16.4403    7.6118    2.8571 H   0  0  0  0  0  0  0  0  0  0  0  0
   17.7291    7.0281    4.9898 H   0  0  0  0  0  0  0  0  0  0  0  0
   13.6728   -2.1562    5.0400 H   0  0  0  0  0  0  0  0  0  0  0  0
   12.8434   -1.7923    2.6454 H   0  0  0  0  0  0  0  0  0  0  0  0
   10.7488   -0.0666    2.0772 H   0  0  0  0  0  0  0  0  0  0  0  0
    9.4835   -1.6038    0.6947 H   0  0  0  0  0  0  0  0  0  0  0  0
   -1.2219    2.1847   -1.7224 H   0  0  0  0  0  0  0  0  0  0  0  0
   -3.6387    2.3007   -1.7370 H   0  0  0  0  0  0  0  0  0  0  0  0
   -5.8577   -0.6372   -1.2522 H   0  0  0  0  0  0  0  0  0  0  0  0
   -5.7710    0.9551   -2.0307 H   0  0  0  0  0  0  0  0  0  0  0  0
   -5.2905    3.0581    0.1728 H   0  0  0  0  0  0  0  0  0  0  0  0
   -6.6862    3.0767    2.4277 H   0  0  0  0  0  0  0  0  0  0  0  0
   -7.7305    0.7275    2.6728 H   0  0  0  0  0  0  0  0  0  0  0  0
   -3.8524   -1.7970   -0.8173 H   0  0  0  0  0  0  0  0  0  0  0  0
  1  2  1  0  0  0  0
  1 91  1  0  0  0  0
  1 92  1  0  0  0  0
  1 93  1  0  0  0  0
  2  3  1  0  0  0  0
  2 78  1  0  0  0  0
  2 94  1  6  0  0  0
  3  4  2  0  0  0  0
  3  5  1  0  0  0  0
  5  6  1  0  0  0  0
  5 95  1  0  0  0  0
  6  7  1  0  0  0  0
  6 96  1  0  0  0  0
  6 97  1  0  0  0  0
  7  8  1  0  0  0  0
  7 98  1  0  0  0  0
  7 99  1  0  0  0  0
  8  9  1  0  0  0  0
  8100  1  0  0  0  0
  8101  1  0  0  0  0
  9 10  1  0  0  0  0
  9102  1  0  0  0  0
  9103  1  0  0  0  0
 10 11  1  0  0  0  0
 10104  1  0  0  0  0
 10105  1  0  0  0  0
 11 12  1  0  0  0  0
 11106  1  0  0  0  0
 11107  1  0  0  0  0
 12 13  1  0  0  0  0
 12108  1  0  0  0  0
 13 14  2  0  0  0  0
 13 15  1  0  0  0  0
 15 16  1  0  0  0  0
 15 77  2  0  0  0  0
 16 17  2  0  0  0  0
 16109  1  0  0  0  0
 17 18  1  0  0  0  0
 17110  1  0  0  0  0
 18 19  1  0  0  0  0
 18 76  2  0  0  0  0
 19 20  1  0  0  0  0
 19 70  2  0  0  0  0
 20 21  2  0  0  0  0
 20 75  1  0  0  0  0
 21 22  1  0  0  0  0
 22 23  2  0  0  0  0
 22 74  1  0  0  0  0
 23 24  1  0  0  0  0
 23 35  1  0  0  0  0
 24 25  1  0  0  0  0
 24 33  2  0  0  0  0
 25 26  1  0  0  0  0
 25 27  2  0  0  0  0
 27 28  1  0  0  0  0
 27 29  1  0  0  0  0
 29 30  1  0  0  0  0
 29 31  2  0  0  0  0
 31 32  1  0  0  0  0
 31 33  1  0  0  0  0
 33 34  1  0  0  0  0
 35 36  2  0  0  0  0
 35 39  1  0  0  0  0
 36 37  1  0  0  0  0
 36111  1  0  0  0  0
 37 38  2  0  0  0  0
 37112  1  0  0  0  0
 38 39  1  0  0  0  0
 38 40  1  0  0  0  0
 39113  1  0  0  0  0
 40 41  1  0  0  0  0
 40 52  2  0  0  0  0
 41 42  1  0  0  0  0
 41 50  2  0  0  0  0
 42 43  1  0  0  0  0
 42 44  2  0  0  0  0
 44 45  1  0  0  0  0
 44 46  1  0  0  0  0
 46 47  1  0  0  0  0
 46 48  2  0  0  0  0
 48 49  1  0  0  0  0
 48 50  1  0  0  0  0
 50 51  1  0  0  0  0
 52 53  1  0  0  0  0
 52 73  1  0  0  0  0
 53 54  2  0  0  0  0
 54 55  1  0  0  0  0
 54 72  1  0  0  0  0
 55 56  1  0  0  0  0
 55 67  2  0  0  0  0
 56 57  1  0  0  0  0
 56 65  2  0  0  0  0
 57 58  1  0  0  0  0
 57 59  2  0  0  0  0
 59 60  1  0  0  0  0
 59 61  1  0  0  0  0
 61 62  1  0  0  0  0
 61 63  2  0  0  0  0
 63 64  1  0  0  0  0
 63 65  1  0  0  0  0
 65 66  1  0  0  0  0
 67 68  1  0  0  0  0
 67 71  1  0  0  0  0
 68 69  2  0  0  0  0
 68114  1  0  0  0  0
 69 70  1  0  0  0  0
 69115  1  0  0  0  0
 70 71  1  0  0  0  0
 71116  1  0  0  0  0
 72 73  2  0  0  0  0
 72117  1  0  0  0  0
 73118  1  0  0  0  0
 74 75  2  0  0  0  0
 74119  1  0  0  0  0
 75120  1  0  0  0  0
 76 77  1  0  0  0  0
 76121  1  0  0  0  0
 77122  1  0  0  0  0
 78 79  1  0  0  0  0
 78 89  2  0  0  0  0
 79 80  2  0  0  0  0
 79123  1  0  0  0  0
 80 81  1  0  0  0  0
 80124  1  0  0  0  0
 81 82  1  0  0  0  0
 81 88  2  0  0  0  0
 82 83  1  0  0  0  0
 82125  1  0  0  0  0
 82126  1  0  0  0  0
 83 84  2  0  0  0  0
 83 87  1  0  0  0  0
 84 85  1  0  0  0  0
 84127  1  0  0  0  0
 85 86  2  0  0  0  0
 85128  1  0  0  0  0
 86 87  1  0  0  0  0
 86129  1  0  0  0  0
 88 89  1  0  0  0  0
 88130  1  0  0  0  0
 89 90  1  0  0  0  0
M  END
$$$$
