1_1_2476
 OpenBabel01102313203D

145157  0  0  0  0  0  0  0  0999 V2000
    0.8519    0.0331    0.0474 C   0  0  0  0  0  0  0  0  0  0  0  0
    0.4013   -0.9931    1.0450 C   0  0  0  0  0  0  0  0  0  0  0  0
    0.6192   -2.3471    0.7892 C   0  0  0  0  0  0  0  0  0  0  0  0
    0.2615   -3.3282    1.7179 C   0  0  0  0  0  0  0  0  0  0  0  0
   -0.3005   -2.9225    2.9416 C   0  0  0  0  0  0  0  0  0  0  0  0
   -0.5661   -1.5782    3.2107 C   0  0  0  0  0  0  0  0  0  0  0  0
   -0.2036   -0.6059    2.2514 C   0  0  0  0  0  0  0  0  0  0  0  0
   -1.1787   -1.5195    4.4963 C   0  0  0  0  0  0  0  0  0  0  0  0
   -1.6515   -0.3544    5.2362 C   0  0  0  0  0  0  0  0  0  0  0  0
   -2.8763    0.1971    4.8715 C   0  0  0  0  0  0  0  0  0  0  0  0
   -3.3420    1.2636    5.6063 C   0  0  0  0  0  0  0  0  0  0  0  0
   -2.6831    1.7995    6.6552 N   0  0  0  0  0  0  0  0  0  0  0  0
   -1.4892    1.2836    7.0165 C   0  0  0  0  0  0  0  0  0  0  0  0
   -0.7879    1.8183    8.1100 C   0  0  0  0  0  0  0  0  0  0  0  0
   -1.3512    2.9481    8.9318 C   0  0  0  0  0  0  0  0  0  0  0  0
    0.4710    1.3145    8.4859 C   0  0  0  0  0  0  0  0  0  0  0  0
    1.0410    0.2638    7.7897 C   0  0  0  0  0  0  0  0  0  0  0  0
    0.3481   -0.2887    6.7214 C   0  0  0  0  0  0  0  0  0  0  0  0
   -0.9165    0.1978    6.3170 C   0  0  0  0  0  0  0  0  0  0  0  0
   -1.2653   -2.8127    4.9932 C   0  0  0  0  0  0  0  0  0  0  0  0
   -1.8468   -3.2853    6.2866 C   0  0  0  0  0  0  0  0  0  0  0  0
   -0.6436   -3.6421    4.0778 N   0  0  0  0  0  0  0  0  0  0  0  0
   -0.3794   -5.0661    4.2618 C   0  0  0  0  0  0  0  0  0  0  0  0
    0.5332   -5.3814    5.4332 C   0  0  0  0  0  0  0  0  0  0  0  0
    0.1099   -5.9756    6.4287 O   0  0  0  0  0  0  0  0  0  0  0  0
    1.8648   -5.0838    5.3928 N   0  0  0  0  0  0  0  0  0  0  0  0
    2.6174   -4.3553    4.3899 C   0  0  0  0  0  0  0  0  0  0  0  0
    2.9460   -2.9411    4.8614 C   0  0  0  0  0  0  0  0  0  0  0  0
    4.0061   -2.8799    5.9681 C   0  0  0  0  0  0  0  0  0  0  0  0
    5.3936   -3.3755    5.5518 C   0  0  0  0  0  0  0  0  0  0  0  0
    5.9974   -2.6664    4.3361 C   0  0  0  0  0  0  0  0  0  0  0  0
    6.1649   -1.1538    4.5032 C   0  0  0  0  0  0  0  0  0  0  0  0
    7.0570   -0.7761    5.5795 N   0  0  0  0  0  0  0  0  0  0  0  0
    8.4188   -0.6704    5.7154 C   0  0  0  0  0  0  0  0  0  0  0  0
    8.8286   -0.1846    6.7598 O   0  0  0  0  0  0  0  0  0  0  0  0
    9.4111   -1.1683    4.7179 C   0  0  0  0  0  0  0  0  0  0  0  0
    9.1110   -1.6595    3.4507 C   0  0  0  0  0  0  0  0  0  0  0  0
   10.0938   -2.2681    2.6806 C   0  0  0  0  0  0  0  0  0  0  0  0
   11.4109   -2.3462    3.1444 C   0  0  0  0  0  0  0  0  0  0  0  0
   12.3914   -2.9535    2.2480 C   0  0  0  0  0  0  0  0  0  0  0  0
   12.4940   -2.2980    0.9134 C   0  0  0  0  0  0  0  0  0  0  0  0
   12.2240   -2.8057   -0.2457 N   0  0  0  0  0  0  0  0  0  0  0  0
   12.4920   -1.8054   -1.1782 C   0  0  0  0  0  0  0  0  0  0  0  0
   12.6651   -2.0922   -2.4975 C   0  0  0  0  0  0  0  0  0  0  0  0
   13.6638   -1.4019   -3.4001 C   0  0  0  0  0  0  0  0  0  0  0  0
   13.7147   -1.7531   -4.7667 C   0  0  0  0  0  0  0  0  0  0  0  0
   12.7296   -2.4712   -5.3271 F   0  0  0  0  0  0  0  0  0  0  0  0
   14.8244   -1.4630   -5.5659 C   0  0  0  0  0  0  0  0  0  0  0  0
   14.8834   -1.9344   -6.8189 F   0  0  0  0  0  0  0  0  0  0  0  0
   15.8948   -0.7581   -5.0497 C   0  0  0  0  0  0  0  0  0  0  0  0
   16.9872   -0.5365   -5.7921 F   0  0  0  0  0  0  0  0  0  0  0  0
   15.8492   -0.3278   -3.7411 C   0  0  0  0  0  0  0  0  0  0  0  0
   16.8859    0.3411   -3.2166 F   0  0  0  0  0  0  0  0  0  0  0  0
   14.7670   -0.6598   -2.9266 C   0  0  0  0  0  0  0  0  0  0  0  0
   14.9006   -0.3231   -1.6392 F   0  0  0  0  0  0  0  0  0  0  0  0
   12.0971   -3.3703   -2.8322 C   0  0  0  0  0  0  0  0  0  0  0  0
   10.8237   -3.8998   -2.8677 C   0  0  0  0  0  0  0  0  0  0  0  0
   10.9790   -5.2753   -2.5262 C   0  0  0  0  0  0  0  0  0  0  0  0
   12.3402   -5.5177   -2.3361 C   0  0  0  0  0  0  0  0  0  0  0  0
   12.9535   -4.4369   -2.9085 N   0  0  0  0  0  0  0  0  0  0  0  0
   13.0497   -6.5338   -1.5941 C   0  0  0  0  0  0  0  0  0  0  0  0
   12.2313   -7.6707   -1.0526 C   0  0  0  0  0  0  0  0  0  0  0  0
   11.8792   -7.8176    0.3000 C   0  0  0  0  0  0  0  0  0  0  0  0
   12.3037   -6.9461    1.2242 F   0  0  0  0  0  0  0  0  0  0  0  0
   11.0260   -8.8397    0.7139 C   0  0  0  0  0  0  0  0  0  0  0  0
   10.7083   -8.9667    2.0109 F   0  0  0  0  0  0  0  0  0  0  0  0
   10.4704   -9.7024   -0.2171 C   0  0  0  0  0  0  0  0  0  0  0  0
    9.6087  -10.6516    0.1746 F   0  0  0  0  0  0  0  0  0  0  0  0
   10.7829   -9.5604   -1.5590 C   0  0  0  0  0  0  0  0  0  0  0  0
   10.2087  -10.3593   -2.4692 F   0  0  0  0  0  0  0  0  0  0  0  0
   11.6654   -8.5669   -1.9702 C   0  0  0  0  0  0  0  0  0  0  0  0
   11.9274   -8.4417   -3.2810 F   0  0  0  0  0  0  0  0  0  0  0  0
   14.3408   -6.4239   -1.1684 C   0  0  0  0  0  0  0  0  0  0  0  0
   14.7719   -7.1076   -0.0447 N   0  0  0  0  0  0  0  0  0  0  0  0
   15.7026   -6.3498    0.4615 C   0  0  0  0  0  0  0  0  0  0  0  0
   15.9621   -6.2010    1.9120 C   0  0  0  0  0  0  0  0  0  0  0  0
   17.2944   -6.4874    2.4967 C   0  0  0  0  0  0  0  0  0  0  0  0
   18.1628   -7.4119    1.8889 C   0  0  0  0  0  0  0  0  0  0  0  0
   17.7122   -8.2322    0.9283 F   0  0  0  0  0  0  0  0  0  0  0  0
   19.5266   -7.4504    2.1956 C   0  0  0  0  0  0  0  0  0  0  0  0
   20.3370   -8.2893    1.5348 F   0  0  0  0  0  0  0  0  0  0  0  0
   20.0578   -6.5773    3.1293 C   0  0  0  0  0  0  0  0  0  0  0  0
   21.3762   -6.5615    3.3695 F   0  0  0  0  0  0  0  0  0  0  0  0
   19.2226   -5.6876    3.7792 C   0  0  0  0  0  0  0  0  0  0  0  0
   19.7312   -4.8145    4.6602 F   0  0  0  0  0  0  0  0  0  0  0  0
   17.8627   -5.6416    3.4675 C   0  0  0  0  0  0  0  0  0  0  0  0
   17.1339   -4.6841    4.0578 F   0  0  0  0  0  0  0  0  0  0  0  0
   14.9178   -5.5211    2.4454 C   0  0  0  0  0  0  0  0  0  0  0  0
   14.4775   -5.4192    3.8266 C   0  0  0  0  0  0  0  0  0  0  0  0
   13.4101   -4.5897    3.8877 C   0  0  0  0  0  0  0  0  0  0  0  0
   13.1870   -3.9918    2.5710 C   0  0  0  0  0  0  0  0  0  0  0  0
   14.0354   -4.6948    1.7636 N   0  0  0  0  0  0  0  0  0  0  0  0
   16.2712   -5.3661   -0.4465 C   0  0  0  0  0  0  0  0  0  0  0  0
   15.3856   -5.4447   -1.4414 C   0  0  0  0  0  0  0  0  0  0  0  0
   12.7471   -0.6047   -0.4265 C   0  0  0  0  0  0  0  0  0  0  0  0
   12.8266   -0.8663    0.8788 C   0  0  0  0  0  0  0  0  0  0  0  0
   11.7549   -1.7597    4.3553 C   0  0  0  0  0  0  0  0  0  0  0  0
   10.7562   -1.1861    5.1394 C   0  0  0  0  0  0  0  0  0  0  0  0
    1.2844   -0.4582   -0.7990 H   0  0  0  0  0  0  0  0  0  0  0  0
    1.5805    0.6735    0.4989 H   0  0  0  0  0  0  0  0  0  0  0  0
    0.0121    0.6158   -0.2690 H   0  0  0  0  0  0  0  0  0  0  0  0
    1.0531   -2.6298   -0.1035 H   0  0  0  0  0  0  0  0  0  0  0  0
    0.4066   -4.3286    1.5103 H   0  0  0  0  0  0  0  0  0  0  0  0
   -0.3842    0.3928    2.4384 H   0  0  0  0  0  0  0  0  0  0  0  0
   -3.4166   -0.1807    4.0775 H   0  0  0  0  0  0  0  0  0  0  0  0
   -4.2487    1.6780    5.3394 H   0  0  0  0  0  0  0  0  0  0  0  0
   -2.3055    3.2326    8.5403 H   0  0  0  0  0  0  0  0  0  0  0  0
   -0.6854    3.7848    8.8917 H   0  0  0  0  0  0  0  0  0  0  0  0
   -1.4629    2.6294    9.9471 H   0  0  0  0  0  0  0  0  0  0  0  0
    0.9722    1.7314    9.2859 H   0  0  0  0  0  0  0  0  0  0  0  0
    1.9667   -0.1034    8.0603 H   0  0  0  0  0  0  0  0  0  0  0  0
    0.7685   -1.0783    6.2068 H   0  0  0  0  0  0  0  0  0  0  0  0
   -2.2682   -2.4544    6.8129 H   0  0  0  0  0  0  0  0  0  0  0  0
   -1.0775   -3.7314    6.8816 H   0  0  0  0  0  0  0  0  0  0  0  0
   -2.6109   -4.0083    6.0911 H   0  0  0  0  0  0  0  0  0  0  0  0
    0.0773   -5.4410    3.3698 H   0  0  0  0  0  0  0  0  0  0  0  0
   -1.3208   -5.5298    4.4708 H   0  0  0  0  0  0  0  0  0  0  0  0
    2.3917   -5.4120    6.1569 H   0  0  0  0  0  0  0  0  0  0  0  0
    2.0373   -4.2975    3.4926 H   0  0  0  0  0  0  0  0  0  0  0  0
    3.5363   -4.8746    4.2140 H   0  0  0  0  0  0  0  0  0  0  0  0
    2.0476   -2.4932    5.2317 H   0  0  0  0  0  0  0  0  0  0  0  0
    3.3502   -2.4211    4.0181 H   0  0  0  0  0  0  0  0  0  0  0  0
    3.6689   -3.4812    6.7865 H   0  0  0  0  0  0  0  0  0  0  0  0
    4.1178   -1.8468    6.2233 H   0  0  0  0  0  0  0  0  0  0  0  0
    5.3189   -4.4184    5.3243 H   0  0  0  0  0  0  0  0  0  0  0  0
    6.0450   -3.1651    6.3742 H   0  0  0  0  0  0  0  0  0  0  0  0
    5.3587   -2.8413    3.4956 H   0  0  0  0  0  0  0  0  0  0  0  0
    6.9800   -3.0692    4.2052 H   0  0  0  0  0  0  0  0  0  0  0  0
    5.2028   -0.7281    4.6984 H   0  0  0  0  0  0  0  0  0  0  0  0
    6.6006   -0.7882    3.5969 H   0  0  0  0  0  0  0  0  0  0  0  0
    6.5751   -0.5405    6.4051 H   0  0  0  0  0  0  0  0  0  0  0  0
    8.1517   -1.5709    3.0807 H   0  0  0  0  0  0  0  0  0  0  0  0
    9.8504   -2.6654    1.7598 H   0  0  0  0  0  0  0  0  0  0  0  0
    9.9461   -3.4058   -3.0933 H   0  0  0  0  0  0  0  0  0  0  0  0
   10.2198   -5.9685   -2.4357 H   0  0  0  0  0  0  0  0  0  0  0  0
   13.8540   -4.4273   -3.3062 H   0  0  0  0  0  0  0  0  0  0  0  0
   14.9090   -5.9013    4.6306 H   0  0  0  0  0  0  0  0  0  0  0  0
   12.8428   -4.4075    4.7303 H   0  0  0  0  0  0  0  0  0  0  0  0
   14.0221   -4.6216    0.7819 H   0  0  0  0  0  0  0  0  0  0  0  0
   17.1140   -4.7785   -0.3495 H   0  0  0  0  0  0  0  0  0  0  0  0
   15.4345   -4.8787   -2.3030 H   0  0  0  0  0  0  0  0  0  0  0  0
   12.8542    0.3337   -0.8423 H   0  0  0  0  0  0  0  0  0  0  0  0
   13.0599   -0.2316    1.6584 H   0  0  0  0  0  0  0  0  0  0  0  0
   12.7376   -1.7489    4.6703 H   0  0  0  0  0  0  0  0  0  0  0  0
   11.0064   -0.7654    6.0479 H   0  0  0  0  0  0  0  0  0  0  0  0
  1  2  1  0  0  0  0
  1 99  1  0  0  0  0
  1100  1  0  0  0  0
  1101  1  0  0  0  0
  2  3  1  0  0  0  0
  2  7  2  0  0  0  0
  3  4  2  0  0  0  0
  3102  1  0  0  0  0
  4  5  1  0  0  0  0
  4103  1  0  0  0  0
  5  6  2  0  0  0  0
  5 22  1  0  0  0  0
  6  7  1  0  0  0  0
  6  8  1  0  0  0  0
  7104  1  0  0  0  0
  8  9  1  0  0  0  0
  8 20  2  0  0  0  0
  9 10  1  0  0  0  0
  9 19  2  0  0  0  0
 10 11  2  0  0  0  0
 10105  1  0  0  0  0
 11 12  1  0  0  0  0
 11106  1  0  0  0  0
 12 13  2  0  0  0  0
 13 14  1  0  0  0  0
 13 19  1  0  0  0  0
 14 15  1  0  0  0  0
 14 16  2  0  0  0  0
 15107  1  0  0  0  0
 15108  1  0  0  0  0
 15109  1  0  0  0  0
 16 17  1  0  0  0  0
 16110  1  0  0  0  0
 17 18  2  0  0  0  0
 17111  1  0  0  0  0
 18 19  1  0  0  0  0
 18112  1  0  0  0  0
 20 21  1  0  0  0  0
 20 22  1  0  0  0  0
 21113  1  0  0  0  0
 21114  1  0  0  0  0
 21115  1  0  0  0  0
 22 23  1  0  0  0  0
 23 24  1  0  0  0  0
 23116  1  0  0  0  0
 23117  1  0  0  0  0
 24 25  2  0  0  0  0
 24 26  1  0  0  0  0
 26 27  1  0  0  0  0
 26118  1  0  0  0  0
 27 28  1  0  0  0  0
 27119  1  0  0  0  0
 27120  1  0  0  0  0
 28 29  1  0  0  0  0
 28121  1  0  0  0  0
 28122  1  0  0  0  0
 29 30  1  0  0  0  0
 29123  1  0  0  0  0
 29124  1  0  0  0  0
 30 31  1  0  0  0  0
 30125  1  0  0  0  0
 30126  1  0  0  0  0
 31 32  1  0  0  0  0
 31127  1  0  0  0  0
 31128  1  0  0  0  0
 32 33  1  0  0  0  0
 32129  1  0  0  0  0
 32130  1  0  0  0  0
 33 34  1  0  0  0  0
 33131  1  0  0  0  0
 34 35  2  0  0  0  0
 34 36  1  0  0  0  0
 36 37  1  0  0  0  0
 36 98  2  0  0  0  0
 37 38  2  0  0  0  0
 37132  1  0  0  0  0
 38 39  1  0  0  0  0
 38133  1  0  0  0  0
 39 40  1  0  0  0  0
 39 97  2  0  0  0  0
 40 41  1  0  0  0  0
 40 91  2  0  0  0  0
 41 42  2  0  0  0  0
 41 96  1  0  0  0  0
 42 43  1  0  0  0  0
 43 44  2  0  0  0  0
 43 95  1  0  0  0  0
 44 45  1  0  0  0  0
 44 56  1  0  0  0  0
 45 46  1  0  0  0  0
 45 54  2  0  0  0  0
 46 47  1  0  0  0  0
 46 48  2  0  0  0  0
 48 49  1  0  0  0  0
 48 50  1  0  0  0  0
 50 51  1  0  0  0  0
 50 52  2  0  0  0  0
 52 53  1  0  0  0  0
 52 54  1  0  0  0  0
 54 55  1  0  0  0  0
 56 57  2  0  0  0  0
 56 60  1  0  0  0  0
 57 58  1  0  0  0  0
 57134  1  0  0  0  0
 58 59  2  0  0  0  0
 58135  1  0  0  0  0
 59 60  1  0  0  0  0
 59 61  1  0  0  0  0
 60136  1  0  0  0  0
 61 62  1  0  0  0  0
 61 73  2  0  0  0  0
 62 63  1  0  0  0  0
 62 71  2  0  0  0  0
 63 64  1  0  0  0  0
 63 65  2  0  0  0  0
 65 66  1  0  0  0  0
 65 67  1  0  0  0  0
 67 68  1  0  0  0  0
 67 69  2  0  0  0  0
 69 70  1  0  0  0  0
 69 71  1  0  0  0  0
 71 72  1  0  0  0  0
 73 74  1  0  0  0  0
 73 94  1  0  0  0  0
 74 75  2  0  0  0  0
 75 76  1  0  0  0  0
 75 93  1  0  0  0  0
 76 77  1  0  0  0  0
 76 88  2  0  0  0  0
 77 78  1  0  0  0  0
 77 86  2  0  0  0  0
 78 79  1  0  0  0  0
 78 80  2  0  0  0  0
 80 81  1  0  0  0  0
 80 82  1  0  0  0  0
 82 83  1  0  0  0  0
 82 84  2  0  0  0  0
 84 85  1  0  0  0  0
 84 86  1  0  0  0  0
 86 87  1  0  0  0  0
 88 89  1  0  0  0  0
 88 92  1  0  0  0  0
 89 90  2  0  0  0  0
 89137  1  0  0  0  0
 90 91  1  0  0  0  0
 90138  1  0  0  0  0
 91 92  1  0  0  0  0
 92139  1  0  0  0  0
 93 94  2  0  0  0  0
 93140  1  0  0  0  0
 94141  1  0  0  0  0
 95 96  2  0  0  0  0
 95142  1  0  0  0  0
 96143  1  0  0  0  0
 97 98  1  0  0  0  0
 97144  1  0  0  0  0
 98145  1  0  0  0  0
M  END
$$$$
