1_1_1894
 OpenBabel01102313203D

130140  0  0  1  0  0  0  0  0999 V2000
    3.4306   -1.2261   13.8566 C   0  0  0  0  0  0  0  0  0  0  0  0
    4.2347   -0.4112   13.0065 O   0  0  0  0  0  0  0  0  0  0  0  0
    3.4714    0.4661   12.2861 C   0  0  0  0  0  0  0  0  0  0  0  0
    2.7765    1.5094   12.8904 C   0  0  0  0  0  0  0  0  0  0  0  0
    2.0865    2.4297   12.0969 C   0  0  0  0  0  0  0  0  0  0  0  0
    2.0844    2.3117   10.6961 C   0  0  0  0  0  0  0  0  0  0  0  0
    1.4442    3.2563    9.8736 C   0  0  0  0  0  0  0  0  0  0  0  0
    1.4273    3.1289    8.4707 C   0  0  0  0  0  0  0  0  0  0  0  0
    0.8156    4.2579    7.6448 C   0  0  2  0  0  0  0  0  0  0  0  0
    0.1781    3.8910    6.2984 C   0  0  0  0  0  0  0  0  0  0  0  0
    1.7698    5.4602    7.5228 C   0  0  0  0  0  0  0  0  0  0  0  0
    1.5256    6.5167    8.1144 O   0  0  0  0  0  0  0  0  0  0  0  0
    2.9028    5.4140    6.7595 N   0  0  0  0  0  0  0  0  0  0  0  0
    3.4970    4.2903    6.0676 C   0  0  0  0  0  0  0  0  0  0  0  0
    4.0624    4.6554    4.7001 C   0  0  0  0  0  0  0  0  0  0  0  0
    5.3523    5.4757    4.7193 C   0  0  0  0  0  0  0  0  0  0  0  0
    6.5250    4.8612    5.4894 C   0  0  0  0  0  0  0  0  0  0  0  0
    6.8882    3.4178    5.1296 C   0  0  0  0  0  0  0  0  0  0  0  0
    7.1538    3.1480    3.6510 C   0  0  0  0  0  0  0  0  0  0  0  0
    8.2455    3.9441    3.1181 N   0  0  0  0  0  0  0  0  0  0  0  0
    9.3624    3.5540    2.4219 C   0  0  0  0  0  0  0  0  0  0  0  0
   10.2463    4.3675    2.1731 O   0  0  0  0  0  0  0  0  0  0  0  0
    9.5234    2.1473    1.9915 C   0  0  0  0  0  0  0  0  0  0  0  0
   10.7613    1.5269    2.1843 C   0  0  0  0  0  0  0  0  0  0  0  0
   10.9291    0.1846    1.8357 C   0  0  0  0  0  0  0  0  0  0  0  0
    9.8509   -0.5553    1.3244 C   0  0  0  0  0  0  0  0  0  0  0  0
    9.9798   -2.0087    1.0441 C   0  0  0  0  0  0  0  0  0  0  0  0
    9.8623   -2.5253   -0.3622 C   0  0  0  0  0  0  0  0  0  0  0  0
    9.8535   -3.7623   -0.7923 N   0  0  0  0  0  0  0  0  0  0  0  0
    9.6888   -3.6836   -2.1687 C   0  0  0  0  0  0  0  0  0  0  0  0
    9.6717   -4.6894   -3.0760 C   0  0  0  0  0  0  0  0  0  0  0  0
    9.4860   -4.3228   -4.5200 C   0  0  0  0  0  0  0  0  0  0  0  0
   10.4965   -3.6776   -5.2489 C   0  0  0  0  0  0  0  0  0  0  0  0
   11.6378   -3.3147   -4.6445 F   0  0  0  0  0  0  0  0  0  0  0  0
   10.3258   -3.3745   -6.5973 C   0  0  0  0  0  0  0  0  0  0  0  0
   11.2888   -2.7218   -7.2626 F   0  0  0  0  0  0  0  0  0  0  0  0
    9.1583   -3.7394   -7.2505 C   0  0  0  0  0  0  0  0  0  0  0  0
    9.0006   -3.4580   -8.5513 F   0  0  0  0  0  0  0  0  0  0  0  0
    8.1524   -4.3919   -6.5539 C   0  0  0  0  0  0  0  0  0  0  0  0
    7.0290   -4.7573   -7.1871 F   0  0  0  0  0  0  0  0  0  0  0  0
    8.3080   -4.6705   -5.1985 C   0  0  0  0  0  0  0  0  0  0  0  0
    7.3128   -5.2945   -4.5504 F   0  0  0  0  0  0  0  0  0  0  0  0
    9.8245   -6.0832   -2.7474 C   0  0  0  0  0  0  0  0  0  0  0  0
    9.8699   -7.1714   -3.6018 C   0  0  0  0  0  0  0  0  0  0  0  0
    9.9826   -8.3316   -2.8288 C   0  0  0  0  0  0  0  0  0  0  0  0
   10.0587   -7.9634   -1.4956 C   0  0  0  0  0  0  0  0  0  0  0  0
    9.9552   -6.5816   -1.4595 N   0  0  0  0  0  0  0  0  0  0  0  0
   10.2116   -8.8084   -0.3394 C   0  0  0  0  0  0  0  0  0  0  0  0
   10.3082  -10.2900   -0.5612 C   0  0  0  0  0  0  0  0  0  0  0  0
    9.2673  -11.1577   -0.1995 C   0  0  0  0  0  0  0  0  0  0  0  0
    8.1688  -10.6793    0.4043 F   0  0  0  0  0  0  0  0  0  0  0  0
    9.3700  -12.5287   -0.4191 C   0  0  0  0  0  0  0  0  0  0  0  0
    8.3844  -13.3446   -0.0203 F   0  0  0  0  0  0  0  0  0  0  0  0
   10.4964  -13.0531   -1.0356 C   0  0  0  0  0  0  0  0  0  0  0  0
   10.5904  -14.3723   -1.2519 F   0  0  0  0  0  0  0  0  0  0  0  0
   11.5286  -12.2110   -1.4202 C   0  0  0  0  0  0  0  0  0  0  0  0
   12.6119  -12.7142   -2.0281 F   0  0  0  0  0  0  0  0  0  0  0  0
   11.4425  -10.8438   -1.1743 C   0  0  0  0  0  0  0  0  0  0  0  0
   12.4634  -10.0564   -1.5452 F   0  0  0  0  0  0  0  0  0  0  0  0
   10.2969   -8.3657    0.9388 C   0  0  0  0  0  0  0  0  0  0  0  0
   10.2628   -7.0623    1.4154 N   0  0  0  0  0  0  0  0  0  0  0  0
   10.3614   -7.1527    2.7192 C   0  0  0  0  0  0  0  0  0  0  0  0
   10.4045   -6.0550    3.7479 C   0  0  0  0  0  0  0  0  0  0  0  0
   10.5165   -6.3763    5.1951 C   0  0  0  0  0  0  0  0  0  0  0  0
   11.6875   -6.9411    5.7195 C   0  0  0  0  0  0  0  0  0  0  0  0
   12.7252   -7.2010    4.9105 F   0  0  0  0  0  0  0  0  0  0  0  0
   11.7796   -7.2877    7.0658 C   0  0  0  0  0  0  0  0  0  0  0  0
   12.8906   -7.8764    7.5289 F   0  0  0  0  0  0  0  0  0  0  0  0
   10.7155   -7.0450    7.9212 C   0  0  0  0  0  0  0  0  0  0  0  0
   10.8039   -7.3796    9.2156 F   0  0  0  0  0  0  0  0  0  0  0  0
    9.5556   -6.4650    7.4304 C   0  0  0  0  0  0  0  0  0  0  0  0
    8.5298   -6.2165    8.2559 F   0  0  0  0  0  0  0  0  0  0  0  0
    9.4514   -6.1463    6.0781 C   0  0  0  0  0  0  0  0  0  0  0  0
    8.3099   -5.6047    5.6281 F   0  0  0  0  0  0  0  0  0  0  0  0
   10.3443   -4.7719    3.3432 C   0  0  0  0  0  0  0  0  0  0  0  0
   10.3729   -3.6064    4.2213 C   0  0  0  0  0  0  0  0  0  0  0  0
   10.2266   -2.4963    3.4806 C   0  0  0  0  0  0  0  0  0  0  0  0
   10.1353   -2.8703    2.0683 C   0  0  0  0  0  0  0  0  0  0  0  0
   10.2275   -4.2403    2.0818 N   0  0  0  0  0  0  0  0  0  0  0  0
   10.4422   -8.5324    3.2195 C   0  0  0  0  0  0  0  0  0  0  0  0
   10.4434   -9.2287    2.0919 C   0  0  0  0  0  0  0  0  0  0  0  0
    9.5545   -2.2807   -2.4985 C   0  0  0  0  0  0  0  0  0  0  0  0
    9.7128   -1.5194   -1.4250 C   0  0  0  0  0  0  0  0  0  0  0  0
    8.6256    0.0905    1.0964 C   0  0  0  0  0  0  0  0  0  0  0  0
    8.4769    1.4462    1.3863 C   0  0  0  0  0  0  0  0  0  0  0  0
    2.0239    1.9940    7.9099 C   0  0  0  0  0  0  0  0  0  0  0  0
    2.7103    1.0746    8.7069 C   0  0  0  0  0  0  0  0  0  0  0  0
    2.7630    1.2295   10.0965 C   0  0  0  0  0  0  0  0  0  0  0  0
    3.4779    0.3304   10.9002 C   0  0  0  0  0  0  0  0  0  0  0  0
    4.0579   -1.8985   14.4037 H   0  0  0  0  0  0  0  0  0  0  0  0
    2.7389   -1.7867   13.2632 H   0  0  0  0  0  0  0  0  0  0  0  0
    2.8916   -0.6046   14.5408 H   0  0  0  0  0  0  0  0  0  0  0  0
    2.7708    1.6029   13.9181 H   0  0  0  0  0  0  0  0  0  0  0  0
    1.5726    3.2048   12.5443 H   0  0  0  0  0  0  0  0  0  0  0  0
    0.9740    4.0648   10.3098 H   0  0  0  0  0  0  0  0  0  0  0  0
   -0.0357    4.5363    8.2301 H   0  0  0  0  0  0  0  0  0  0  0  0
    0.9420    3.5894    5.6125 H   0  0  0  0  0  0  0  0  0  0  0  0
   -0.3390    4.7412    5.9051 H   0  0  0  0  0  0  0  0  0  0  0  0
   -0.5133    3.0865    6.4386 H   0  0  0  0  0  0  0  0  0  0  0  0
    3.3838    6.2680    6.6671 H   0  0  0  0  0  0  0  0  0  0  0  0
    2.7478    3.5379    5.9356 H   0  0  0  0  0  0  0  0  0  0  0  0
    4.3137    3.9450    6.6665 H   0  0  0  0  0  0  0  0  0  0  0  0
    3.3199    5.2207    4.1766 H   0  0  0  0  0  0  0  0  0  0  0  0
    4.3108    3.7281    4.2276 H   0  0  0  0  0  0  0  0  0  0  0  0
    5.1308    6.4244    5.1618 H   0  0  0  0  0  0  0  0  0  0  0  0
    5.6737    5.5333    3.7004 H   0  0  0  0  0  0  0  0  0  0  0  0
    6.2806    4.8864    6.5308 H   0  0  0  0  0  0  0  0  0  0  0  0
    7.3803    5.4464    5.2232 H   0  0  0  0  0  0  0  0  0  0  0  0
    6.0790    2.7892    5.4377 H   0  0  0  0  0  0  0  0  0  0  0  0
    7.8114    3.2168    5.6318 H   0  0  0  0  0  0  0  0  0  0  0  0
    6.2658    3.3729    3.0981 H   0  0  0  0  0  0  0  0  0  0  0  0
    7.4315    2.1189    3.5573 H   0  0  0  0  0  0  0  0  0  0  0  0
    8.1734    4.9123    3.2813 H   0  0  0  0  0  0  0  0  0  0  0  0
   11.5498    2.0597    2.5835 H   0  0  0  0  0  0  0  0  0  0  0  0
   11.8502   -0.2655    1.9546 H   0  0  0  0  0  0  0  0  0  0  0  0
    9.8278   -7.1332   -4.6322 H   0  0  0  0  0  0  0  0  0  0  0  0
   10.0052   -9.2979   -3.1903 H   0  0  0  0  0  0  0  0  0  0  0  0
    9.9720   -6.0348   -0.6410 H   0  0  0  0  0  0  0  0  0  0  0  0
   10.4872   -3.6316    5.2466 H   0  0  0  0  0  0  0  0  0  0  0  0
   10.1851   -1.5329    3.8483 H   0  0  0  0  0  0  0  0  0  0  0  0
   10.2114   -4.7896    1.2649 H   0  0  0  0  0  0  0  0  0  0  0  0
   10.4864   -8.8703    4.1936 H   0  0  0  0  0  0  0  0  0  0  0  0
   10.5369  -10.2553    2.0421 H   0  0  0  0  0  0  0  0  0  0  0  0
    9.3608   -1.9202   -3.4459 H   0  0  0  0  0  0  0  0  0  0  0  0
    9.7274   -0.4900   -1.3535 H   0  0  0  0  0  0  0  0  0  0  0  0
    7.8295   -0.4417    0.7116 H   0  0  0  0  0  0  0  0  0  0  0  0
    7.5958    1.9309    1.1544 H   0  0  0  0  0  0  0  0  0  0  0  0
    1.9558    1.8339    6.8927 H   0  0  0  0  0  0  0  0  0  0  0  0
    3.1843    0.2713    8.2653 H   0  0  0  0  0  0  0  0  0  0  0  0
    4.0120   -0.4364   10.4623 H   0  0  0  0  0  0  0  0  0  0  0  0
  1  2  1  0  0  0  0
  1 90  1  0  0  0  0
  1 91  1  0  0  0  0
  1 92  1  0  0  0  0
  2  3  1  0  0  0  0
  3  4  1  0  0  0  0
  3 89  2  0  0  0  0
  4  5  2  0  0  0  0
  4 93  1  0  0  0  0
  5  6  1  0  0  0  0
  5 94  1  0  0  0  0
  6  7  1  0  0  0  0
  6 88  2  0  0  0  0
  7  8  2  0  0  0  0
  7 95  1  0  0  0  0
  8 86  1  0  0  0  0
  9 11  1  0  0  0  0
  9 10  1  0  0  0  0
  9  8  1  0  0  0  0
  9 96  1  1  0  0  0
 10 97  1  0  0  0  0
 10 98  1  0  0  0  0
 10 99  1  0  0  0  0
 11 12  2  0  0  0  0
 11 13  1  0  0  0  0
 13 14  1  0  0  0  0
 13100  1  0  0  0  0
 14 15  1  0  0  0  0
 14101  1  0  0  0  0
 14102  1  0  0  0  0
 15 16  1  0  0  0  0
 15103  1  0  0  0  0
 15104  1  0  0  0  0
 16 17  1  0  0  0  0
 16105  1  0  0  0  0
 16106  1  0  0  0  0
 17 18  1  0  0  0  0
 17107  1  0  0  0  0
 17108  1  0  0  0  0
 18 19  1  0  0  0  0
 18109  1  0  0  0  0
 18110  1  0  0  0  0
 19 20  1  0  0  0  0
 19111  1  0  0  0  0
 19112  1  0  0  0  0
 20 21  1  0  0  0  0
 20113  1  0  0  0  0
 21 22  2  0  0  0  0
 21 23  1  0  0  0  0
 23 24  1  0  0  0  0
 23 85  2  0  0  0  0
 24 25  2  0  0  0  0
 24114  1  0  0  0  0
 25 26  1  0  0  0  0
 25115  1  0  0  0  0
 26 27  1  0  0  0  0
 26 84  2  0  0  0  0
 27 28  1  0  0  0  0
 27 78  2  0  0  0  0
 28 29  2  0  0  0  0
 28 83  1  0  0  0  0
 29 30  1  0  0  0  0
 30 31  2  0  0  0  0
 30 82  1  0  0  0  0
 31 32  1  0  0  0  0
 31 43  1  0  0  0  0
 32 33  1  0  0  0  0
 32 41  2  0  0  0  0
 33 34  1  0  0  0  0
 33 35  2  0  0  0  0
 35 36  1  0  0  0  0
 35 37  1  0  0  0  0
 37 38  1  0  0  0  0
 37 39  2  0  0  0  0
 39 40  1  0  0  0  0
 39 41  1  0  0  0  0
 41 42  1  0  0  0  0
 43 44  2  0  0  0  0
 43 47  1  0  0  0  0
 44 45  1  0  0  0  0
 44116  1  0  0  0  0
 45 46  2  0  0  0  0
 45117  1  0  0  0  0
 46 47  1  0  0  0  0
 46 48  1  0  0  0  0
 47118  1  0  0  0  0
 48 49  1  0  0  0  0
 48 60  2  0  0  0  0
 49 50  1  0  0  0  0
 49 58  2  0  0  0  0
 50 51  1  0  0  0  0
 50 52  2  0  0  0  0
 52 53  1  0  0  0  0
 52 54  1  0  0  0  0
 54 55  1  0  0  0  0
 54 56  2  0  0  0  0
 56 57  1  0  0  0  0
 56 58  1  0  0  0  0
 58 59  1  0  0  0  0
 60 61  1  0  0  0  0
 60 81  1  0  0  0  0
 61 62  2  0  0  0  0
 62 63  1  0  0  0  0
 62 80  1  0  0  0  0
 63 64  1  0  0  0  0
 63 75  2  0  0  0  0
 64 65  1  0  0  0  0
 64 73  2  0  0  0  0
 65 66  1  0  0  0  0
 65 67  2  0  0  0  0
 67 68  1  0  0  0  0
 67 69  1  0  0  0  0
 69 70  1  0  0  0  0
 69 71  2  0  0  0  0
 71 72  1  0  0  0  0
 71 73  1  0  0  0  0
 73 74  1  0  0  0  0
 75 76  1  0  0  0  0
 75 79  1  0  0  0  0
 76 77  2  0  0  0  0
 76119  1  0  0  0  0
 77 78  1  0  0  0  0
 77120  1  0  0  0  0
 78 79  1  0  0  0  0
 79121  1  0  0  0  0
 80 81  2  0  0  0  0
 80122  1  0  0  0  0
 81123  1  0  0  0  0
 82 83  2  0  0  0  0
 82124  1  0  0  0  0
 83125  1  0  0  0  0
 84 85  1  0  0  0  0
 84126  1  0  0  0  0
 85127  1  0  0  0  0
 86 87  2  0  0  0  0
 86128  1  0  0  0  0
 87 88  1  0  0  0  0
 87129  1  0  0  0  0
 88 89  1  0  0  0  0
 89130  1  0  0  0  0
M  END
$$$$
