1_1_3634
 OpenBabel01102313213D

151159  0  0  0  0  0  0  0  0999 V2000
    1.0566   -0.0084   -0.1075 C   0  0  0  0  0  0  0  0  0  0  0  0
    0.6233   -1.3996   -0.5457 C   0  0  0  0  0  0  0  0  0  0  0  0
    1.1718   -2.4393    0.3864 C   0  0  0  0  0  0  0  0  0  0  0  0
    0.4037   -3.2848    1.0897 C   0  0  0  0  0  0  0  0  0  0  0  0
    0.9284   -4.2536    2.1106 C   0  0  0  0  0  0  0  0  0  0  0  0
    0.3353   -3.9218    3.4490 C   0  0  0  0  0  0  0  0  0  0  0  0
   -0.4570   -4.7631    4.1296 C   0  0  0  0  0  0  0  0  0  0  0  0
   -1.2565   -4.3883    5.3413 C   0  0  0  0  0  0  0  0  0  0  0  0
   -2.7150   -4.5434    5.0090 C   0  0  0  0  0  0  0  0  0  0  0  0
   -3.4821   -5.5596    5.4392 C   0  0  0  0  0  0  0  0  0  0  0  0
   -4.9208   -5.7272    5.0456 C   0  0  0  0  0  0  0  0  0  0  0  0
   -5.3944   -7.1640    4.9024 C   0  0  0  0  0  0  0  0  0  0  0  0
   -5.3624   -8.0452    5.9191 C   0  0  0  0  0  0  0  0  0  0  0  0
   -6.0965   -9.3553    6.0385 C   0  0  0  0  0  0  0  0  0  0  0  0
   -5.6454  -10.2954    7.1939 C   0  0  0  0  0  0  0  0  0  0  0  0
   -6.7536  -10.4572    8.6635 S   0  0  0  0  0  0  0  0  0  0  0  0
   -6.1870   -9.3813   10.0613 C   0  0  0  0  0  0  0  0  0  0  0  0
   -4.7874   -8.8386   10.3356 C   0  0  0  0  0  0  0  0  0  0  0  0
   -4.0615   -8.0444    9.2736 C   0  0  0  0  0  0  0  0  0  0  0  0
   -4.3473   -6.5575    9.1366 C   0  0  0  0  0  0  0  0  0  0  0  0
   -3.4081   -5.7568    9.2074 O   0  0  0  0  0  0  0  0  0  0  0  0
   -5.5660   -6.0257    8.8731 N   0  0  0  0  0  0  0  0  0  0  0  0
   -6.7845   -6.5829    8.3218 C   0  0  0  0  0  0  0  0  0  0  0  0
   -8.0491   -5.9375    8.8750 C   0  0  0  0  0  0  0  0  0  0  0  0
   -8.8887   -5.3036    7.7565 C   0  0  0  0  0  0  0  0  0  0  0  0
   -9.4722   -6.2888    6.7328 C   0  0  0  0  0  0  0  0  0  0  0  0
  -10.4090   -7.3557    7.3000 C   0  0  0  0  0  0  0  0  0  0  0  0
  -11.5107   -6.8246    8.2067 C   0  0  0  0  0  0  0  0  0  0  0  0
  -12.3380   -5.8182    7.5629 N   0  0  0  0  0  0  0  0  0  0  0  0
  -13.6921   -5.6178    7.6591 C   0  0  0  0  0  0  0  0  0  0  0  0
  -14.2470   -4.7922    6.9462 O   0  0  0  0  0  0  0  0  0  0  0  0
  -14.4852   -6.4214    8.6138 C   0  0  0  0  0  0  0  0  0  0  0  0
  -15.7202   -6.9253    8.1998 C   0  0  0  0  0  0  0  0  0  0  0  0
  -16.4827   -7.6929    9.0805 C   0  0  0  0  0  0  0  0  0  0  0  0
  -15.9938   -7.9992   10.3610 C   0  0  0  0  0  0  0  0  0  0  0  0
  -16.8069   -8.7892   11.3177 C   0  0  0  0  0  0  0  0  0  0  0  0
  -17.2860   -8.1534   12.5948 C   0  0  0  0  0  0  0  0  0  0  0  0
  -17.9961   -8.6724   13.5647 N   0  0  0  0  0  0  0  0  0  0  0  0
  -18.1125   -7.6739   14.5233 C   0  0  0  0  0  0  0  0  0  0  0  0
  -18.8182   -7.6893   15.6791 C   0  0  0  0  0  0  0  0  0  0  0  0
  -18.7691   -6.4591   16.5415 C   0  0  0  0  0  0  0  0  0  0  0  0
  -19.3492   -5.2460   16.1374 C   0  0  0  0  0  0  0  0  0  0  0  0
  -19.9406   -5.1464   14.9371 F   0  0  0  0  0  0  0  0  0  0  0  0
  -19.2816   -4.1131   16.9448 C   0  0  0  0  0  0  0  0  0  0  0  0
  -19.7889   -2.9513   16.5098 F   0  0  0  0  0  0  0  0  0  0  0  0
  -18.6743   -4.1805   18.1891 C   0  0  0  0  0  0  0  0  0  0  0  0
  -18.6157   -3.0914   18.9679 F   0  0  0  0  0  0  0  0  0  0  0  0
  -18.1198   -5.3751   18.6221 C   0  0  0  0  0  0  0  0  0  0  0  0
  -17.5455   -5.4464   19.8310 F   0  0  0  0  0  0  0  0  0  0  0  0
  -18.1532   -6.4999   17.8017 C   0  0  0  0  0  0  0  0  0  0  0  0
  -17.5864   -7.6333   18.2419 F   0  0  0  0  0  0  0  0  0  0  0  0
  -19.6021   -8.8102   16.1260 C   0  0  0  0  0  0  0  0  0  0  0  0
  -20.4053   -8.9098   17.2477 C   0  0  0  0  0  0  0  0  0  0  0  0
  -20.9189  -10.2096   17.3023 C   0  0  0  0  0  0  0  0  0  0  0  0
  -20.4929  -10.8984   16.1776 C   0  0  0  0  0  0  0  0  0  0  0  0
  -19.6765  -10.0309   15.4700 N   0  0  0  0  0  0  0  0  0  0  0  0
  -20.8116  -12.2454   15.7762 C   0  0  0  0  0  0  0  0  0  0  0  0
  -21.7737  -13.0198   16.6321 C   0  0  0  0  0  0  0  0  0  0  0  0
  -21.3708  -14.1323   17.3852 C   0  0  0  0  0  0  0  0  0  0  0  0
  -20.1011  -14.5624   17.3290 F   0  0  0  0  0  0  0  0  0  0  0  0
  -22.2849  -14.8395   18.1621 C   0  0  0  0  0  0  0  0  0  0  0  0
  -21.8910  -15.9368   18.8230 F   0  0  0  0  0  0  0  0  0  0  0  0
  -23.6054  -14.4224   18.2378 C   0  0  0  0  0  0  0  0  0  0  0  0
  -24.4820  -15.1015   18.9901 F   0  0  0  0  0  0  0  0  0  0  0  0
  -24.0191  -13.3070   17.5264 C   0  0  0  0  0  0  0  0  0  0  0  0
  -25.2899  -12.8905   17.6126 F   0  0  0  0  0  0  0  0  0  0  0  0
  -23.1171  -12.6210   16.7189 C   0  0  0  0  0  0  0  0  0  0  0  0
  -23.5536  -11.5572   16.0277 F   0  0  0  0  0  0  0  0  0  0  0  0
  -20.3376  -12.8586   14.6631 C   0  0  0  0  0  0  0  0  0  0  0  0
  -19.4915  -12.3597   13.6814 N   0  0  0  0  0  0  0  0  0  0  0  0
  -19.3224  -13.3344   12.8208 C   0  0  0  0  0  0  0  0  0  0  0  0
  -18.5434  -13.3447   11.5319 C   0  0  0  0  0  0  0  0  0  0  0  0
  -18.5105  -14.5564   10.6705 C   0  0  0  0  0  0  0  0  0  0  0  0
  -19.6707  -15.0154   10.0298 C   0  0  0  0  0  0  0  0  0  0  0  0
  -20.8298  -14.3609   10.1948 F   0  0  0  0  0  0  0  0  0  0  0  0
  -19.6573  -16.1744    9.2567 C   0  0  0  0  0  0  0  0  0  0  0  0
  -20.7927  -16.6200    8.7020 F   0  0  0  0  0  0  0  0  0  0  0  0
  -18.4758  -16.8775    9.0782 C   0  0  0  0  0  0  0  0  0  0  0  0
  -18.4627  -17.9917    8.3342 F   0  0  0  0  0  0  0  0  0  0  0  0
  -17.3099  -16.4289    9.6801 C   0  0  0  0  0  0  0  0  0  0  0  0
  -16.1627  -17.0965    9.4971 F   0  0  0  0  0  0  0  0  0  0  0  0
  -17.3295  -15.2879   10.4800 C   0  0  0  0  0  0  0  0  0  0  0  0
  -16.1901  -14.8888   11.0639 F   0  0  0  0  0  0  0  0  0  0  0  0
  -17.9062  -12.2232   11.1462 C   0  0  0  0  0  0  0  0  0  0  0  0
  -17.1342  -12.0635    9.9177 C   0  0  0  0  0  0  0  0  0  0  0  0
  -16.6367  -10.8171    9.8723 C   0  0  0  0  0  0  0  0  0  0  0  0
  -17.0864  -10.0793   11.0535 C   0  0  0  0  0  0  0  0  0  0  0  0
  -17.8185  -10.9984   11.7614 N   0  0  0  0  0  0  0  0  0  0  0  0
  -20.0114  -14.5799   13.1837 C   0  0  0  0  0  0  0  0  0  0  0  0
  -20.6558  -14.2196   14.2838 C   0  0  0  0  0  0  0  0  0  0  0  0
  -17.3474   -6.5419   14.0523 C   0  0  0  0  0  0  0  0  0  0  0  0
  -16.8891   -6.7554   12.8290 C   0  0  0  0  0  0  0  0  0  0  0  0
  -14.7448   -7.5005   10.7570 C   0  0  0  0  0  0  0  0  0  0  0  0
  -14.0273   -6.6613    9.9121 C   0  0  0  0  0  0  0  0  0  0  0  0
    0.6568    0.7189   -0.7828 H   0  0  0  0  0  0  0  0  0  0  0  0
    2.1250    0.0503   -0.1117 H   0  0  0  0  0  0  0  0  0  0  0  0
    0.6927    0.1839    0.8802 H   0  0  0  0  0  0  0  0  0  0  0  0
    0.9869   -1.5864   -1.5346 H   0  0  0  0  0  0  0  0  0  0  0  0
   -0.4454   -1.4500   -0.5297 H   0  0  0  0  0  0  0  0  0  0  0  0
    2.1961   -2.5078    0.4923 H   0  0  0  0  0  0  0  0  0  0  0  0
   -0.6138   -3.2686    0.9182 H   0  0  0  0  0  0  0  0  0  0  0  0
    1.9945   -4.1783    2.1620 H   0  0  0  0  0  0  0  0  0  0  0  0
    0.6599   -5.2516    1.8335 H   0  0  0  0  0  0  0  0  0  0  0  0
    0.5475   -3.0018    3.8656 H   0  0  0  0  0  0  0  0  0  0  0  0
   -0.5209   -5.7375    3.7956 H   0  0  0  0  0  0  0  0  0  0  0  0
   -1.0523   -3.3729    5.6100 H   0  0  0  0  0  0  0  0  0  0  0  0
   -0.9962   -5.0194    6.1653 H   0  0  0  0  0  0  0  0  0  0  0  0
   -3.1544   -3.8244    4.4132 H   0  0  0  0  0  0  0  0  0  0  0  0
   -3.0614   -6.2588    6.0710 H   0  0  0  0  0  0  0  0  0  0  0  0
   -5.0651   -5.2368    4.1056 H   0  0  0  0  0  0  0  0  0  0  0  0
   -5.4957   -5.3055    5.8434 H   0  0  0  0  0  0  0  0  0  0  0  0
   -5.7555   -7.4770    3.9877 H   0  0  0  0  0  0  0  0  0  0  0  0
   -4.7592   -7.7916    6.7172 H   0  0  0  0  0  0  0  0  0  0  0  0
   -5.9689   -9.8856    5.1180 H   0  0  0  0  0  0  0  0  0  0  0  0
   -7.1102   -9.0952    6.2615 H   0  0  0  0  0  0  0  0  0  0  0  0
   -4.7008   -9.9365    7.5457 H   0  0  0  0  0  0  0  0  0  0  0  0
   -5.6376  -11.2718    6.7563 H   0  0  0  0  0  0  0  0  0  0  0  0
   -6.4387   -9.9324   10.9432 H   0  0  0  0  0  0  0  0  0  0  0  0
   -6.6512   -8.4677    9.7534 H   0  0  0  0  0  0  0  0  0  0  0  0
   -4.1697   -9.6810   10.5671 H   0  0  0  0  0  0  0  0  0  0  0  0
   -4.9508   -8.1195   11.1109 H   0  0  0  0  0  0  0  0  0  0  0  0
   -4.2939   -8.4958    8.3317 H   0  0  0  0  0  0  0  0  0  0  0  0
   -3.0379   -8.0800    9.5833 H   0  0  0  0  0  0  0  0  0  0  0  0
   -5.6373   -5.0708    9.1019 H   0  0  0  0  0  0  0  0  0  0  0  0
   -6.8112   -7.6287    8.5464 H   0  0  0  0  0  0  0  0  0  0  0  0
   -6.7691   -6.3959    7.2684 H   0  0  0  0  0  0  0  0  0  0  0  0
   -7.7742   -5.1783    9.5771 H   0  0  0  0  0  0  0  0  0  0  0  0
   -8.6360   -6.6969    9.3481 H   0  0  0  0  0  0  0  0  0  0  0  0
   -8.2673   -4.6097    7.2300 H   0  0  0  0  0  0  0  0  0  0  0  0
   -9.7279   -4.8482    8.2394 H   0  0  0  0  0  0  0  0  0  0  0  0
   -8.6557   -6.7885    6.2549 H   0  0  0  0  0  0  0  0  0  0  0  0
  -10.0689   -5.6998    6.0680 H   0  0  0  0  0  0  0  0  0  0  0  0
   -9.8204   -8.0494    7.8633 H   0  0  0  0  0  0  0  0  0  0  0  0
  -10.9001   -7.8012    6.4602 H   0  0  0  0  0  0  0  0  0  0  0  0
  -11.0591   -6.3910    9.0744 H   0  0  0  0  0  0  0  0  0  0  0  0
  -12.1451   -7.6490    8.4572 H   0  0  0  0  0  0  0  0  0  0  0  0
  -11.8590   -5.1912    6.9742 H   0  0  0  0  0  0  0  0  0  0  0  0
  -16.0669   -6.7308    7.2474 H   0  0  0  0  0  0  0  0  0  0  0  0
  -17.4109   -8.0375    8.7895 H   0  0  0  0  0  0  0  0  0  0  0  0
  -20.5931   -8.1557   17.9267 H   0  0  0  0  0  0  0  0  0  0  0  0
  -21.5147  -10.5914   18.0535 H   0  0  0  0  0  0  0  0  0  0  0  0
  -19.2172  -10.2483   14.6268 H   0  0  0  0  0  0  0  0  0  0  0  0
  -16.9934  -12.7913    9.1997 H   0  0  0  0  0  0  0  0  0  0  0  0
  -16.0339  -10.4399    9.1244 H   0  0  0  0  0  0  0  0  0  0  0  0
  -18.2409  -10.7990   12.6280 H   0  0  0  0  0  0  0  0  0  0  0  0
  -19.9972  -15.4951   12.7070 H   0  0  0  0  0  0  0  0  0  0  0  0
  -21.3030  -14.8317   14.8048 H   0  0  0  0  0  0  0  0  0  0  0  0
  -17.1806   -5.6815   14.5972 H   0  0  0  0  0  0  0  0  0  0  0  0
  -16.3845   -6.1094   12.2021 H   0  0  0  0  0  0  0  0  0  0  0  0
  -14.3569   -7.7571   11.6783 H   0  0  0  0  0  0  0  0  0  0  0  0
  -13.1573   -6.2159   10.2434 H   0  0  0  0  0  0  0  0  0  0  0  0
  1  2  1  0  0  0  0
  1 95  1  0  0  0  0
  1 96  1  0  0  0  0
  1 97  1  0  0  0  0
  2  3  1  0  0  0  0
  2 98  1  0  0  0  0
  2 99  1  0  0  0  0
  3  4  2  0  0  0  0
  3100  1  0  0  0  0
  4  5  1  0  0  0  0
  4101  1  0  0  0  0
  5  6  1  0  0  0  0
  5102  1  0  0  0  0
  5103  1  0  0  0  0
  6  7  2  0  0  0  0
  6104  1  0  0  0  0
  7  8  1  0  0  0  0
  7105  1  0  0  0  0
  8  9  1  0  0  0  0
  8106  1  0  0  0  0
  8107  1  0  0  0  0
  9 10  2  0  0  0  0
  9108  1  0  0  0  0
 10 11  1  0  0  0  0
 10109  1  0  0  0  0
 11 12  1  0  0  0  0
 11110  1  0  0  0  0
 11111  1  0  0  0  0
 12 13  2  0  0  0  0
 12112  1  0  0  0  0
 13 14  1  0  0  0  0
 13113  1  0  0  0  0
 14 15  1  0  0  0  0
 14114  1  0  0  0  0
 14115  1  0  0  0  0
 15 16  1  0  0  0  0
 15116  1  0  0  0  0
 15117  1  0  0  0  0
 16 17  1  0  0  0  0
 17 18  1  0  0  0  0
 17118  1  0  0  0  0
 17119  1  0  0  0  0
 18 19  1  0  0  0  0
 18120  1  0  0  0  0
 18121  1  0  0  0  0
 19 20  1  0  0  0  0
 19122  1  0  0  0  0
 19123  1  0  0  0  0
 20 21  2  0  0  0  0
 20 22  1  0  0  0  0
 22 23  1  0  0  0  0
 22124  1  0  0  0  0
 23 24  1  0  0  0  0
 23125  1  0  0  0  0
 23126  1  0  0  0  0
 24 25  1  0  0  0  0
 24127  1  0  0  0  0
 24128  1  0  0  0  0
 25 26  1  0  0  0  0
 25129  1  0  0  0  0
 25130  1  0  0  0  0
 26 27  1  0  0  0  0
 26131  1  0  0  0  0
 26132  1  0  0  0  0
 27 28  1  0  0  0  0
 27133  1  0  0  0  0
 27134  1  0  0  0  0
 28 29  1  0  0  0  0
 28135  1  0  0  0  0
 28136  1  0  0  0  0
 29 30  1  0  0  0  0
 29137  1  0  0  0  0
 30 31  2  0  0  0  0
 30 32  1  0  0  0  0
 32 33  1  0  0  0  0
 32 94  2  0  0  0  0
 33 34  2  0  0  0  0
 33138  1  0  0  0  0
 34 35  1  0  0  0  0
 34139  1  0  0  0  0
 35 36  1  0  0  0  0
 35 93  2  0  0  0  0
 36 37  1  0  0  0  0
 36 87  2  0  0  0  0
 37 38  2  0  0  0  0
 37 92  1  0  0  0  0
 38 39  1  0  0  0  0
 39 40  2  0  0  0  0
 39 91  1  0  0  0  0
 40 41  1  0  0  0  0
 40 52  1  0  0  0  0
 41 42  1  0  0  0  0
 41 50  2  0  0  0  0
 42 43  1  0  0  0  0
 42 44  2  0  0  0  0
 44 45  1  0  0  0  0
 44 46  1  0  0  0  0
 46 47  1  0  0  0  0
 46 48  2  0  0  0  0
 48 49  1  0  0  0  0
 48 50  1  0  0  0  0
 50 51  1  0  0  0  0
 52 53  2  0  0  0  0
 52 56  1  0  0  0  0
 53 54  1  0  0  0  0
 53140  1  0  0  0  0
 54 55  2  0  0  0  0
 54141  1  0  0  0  0
 55 56  1  0  0  0  0
 55 57  1  0  0  0  0
 56142  1  0  0  0  0
 57 58  1  0  0  0  0
 57 69  2  0  0  0  0
 58 59  1  0  0  0  0
 58 67  2  0  0  0  0
 59 60  1  0  0  0  0
 59 61  2  0  0  0  0
 61 62  1  0  0  0  0
 61 63  1  0  0  0  0
 63 64  1  0  0  0  0
 63 65  2  0  0  0  0
 65 66  1  0  0  0  0
 65 67  1  0  0  0  0
 67 68  1  0  0  0  0
 69 70  1  0  0  0  0
 69 90  1  0  0  0  0
 70 71  2  0  0  0  0
 71 72  1  0  0  0  0
 71 89  1  0  0  0  0
 72 73  1  0  0  0  0
 72 84  2  0  0  0  0
 73 74  1  0  0  0  0
 73 82  2  0  0  0  0
 74 75  1  0  0  0  0
 74 76  2  0  0  0  0
 76 77  1  0  0  0  0
 76 78  1  0  0  0  0
 78 79  1  0  0  0  0
 78 80  2  0  0  0  0
 80 81  1  0  0  0  0
 80 82  1  0  0  0  0
 82 83  1  0  0  0  0
 84 85  1  0  0  0  0
 84 88  1  0  0  0  0
 85 86  2  0  0  0  0
 85143  1  0  0  0  0
 86 87  1  0  0  0  0
 86144  1  0  0  0  0
 87 88  1  0  0  0  0
 88145  1  0  0  0  0
 89 90  2  0  0  0  0
 89146  1  0  0  0  0
 90147  1  0  0  0  0
 91 92  2  0  0  0  0
 91148  1  0  0  0  0
 92149  1  0  0  0  0
 93 94  1  0  0  0  0
 93150  1  0  0  0  0
 94151  1  0  0  0  0
M  END
$$$$
