1_1_1496
 OpenBabel01102313193D

148160  0  0  0  0  0  0  0  0999 V2000
    1.1791    0.0430   -0.1241 C   0  0  0  0  0  0  0  0  0  0  0  0
    0.7099   -0.7481    1.0971 C   0  0  0  0  0  0  0  0  0  0  0  0
   -0.7131   -0.2905    1.4692 C   0  0  0  0  0  0  0  0  0  0  0  0
    0.7127   -2.2875    0.8280 C   0  0  0  0  0  0  0  0  0  0  0  0
    1.1025   -2.8339    2.1486 C   0  0  0  0  0  0  0  0  0  0  0  0
    1.0830   -4.0101    2.8471 C   0  0  0  0  0  0  0  0  0  0  0  0
    0.5592   -5.2608    2.3362 C   0  0  0  0  0  0  0  0  0  0  0  0
    1.0885   -5.8391    1.1787 C   0  0  0  0  0  0  0  0  0  0  0  0
    0.6260   -7.0831    0.7475 C   0  0  0  0  0  0  0  0  0  0  0  0
   -0.3644   -7.7503    1.4695 C   0  0  0  0  0  0  0  0  0  0  0  0
   -0.9029   -7.1739    2.6175 C   0  0  0  0  0  0  0  0  0  0  0  0
   -0.4424   -5.9314    3.0493 C   0  0  0  0  0  0  0  0  0  0  0  0
    1.6512   -3.7210    4.1413 C   0  0  0  0  0  0  0  0  0  0  0  0
    1.8798   -4.6927    5.2044 C   0  0  0  0  0  0  0  0  0  0  0  0
    2.7152   -5.7935    4.9621 C   0  0  0  0  0  0  0  0  0  0  0  0
    2.8162   -6.8287    5.8961 C   0  0  0  0  0  0  0  0  0  0  0  0
    2.0918   -6.7596    7.0833 C   0  0  0  0  0  0  0  0  0  0  0  0
    2.1845   -8.0484    8.2195 Cl  0  0  0  0  0  0  0  0  0  0  0  0
    1.2694   -5.6662    7.3434 C   0  0  0  0  0  0  0  0  0  0  0  0
    1.1527   -4.6431    6.3979 C   0  0  0  0  0  0  0  0  0  0  0  0
    1.9672   -2.3580    4.1847 C   0  0  0  0  0  0  0  0  0  0  0  0
    2.6059   -1.4996    5.2388 C   0  0  0  0  0  0  0  0  0  0  0  0
    1.8637   -1.4839    6.5682 C   0  0  0  0  0  0  0  0  0  0  0  0
    2.4189   -1.8217    7.6171 O   0  0  0  0  0  0  0  0  0  0  0  0
    0.5823   -1.0190    6.6573 N   0  0  0  0  0  0  0  0  0  0  0  0
   -0.2648   -0.4839    5.6179 C   0  0  0  0  0  0  0  0  0  0  0  0
   -1.4374   -1.4024    5.2816 C   0  0  0  0  0  0  0  0  0  0  0  0
   -2.5456   -1.4319    6.3373 C   0  0  0  0  0  0  0  0  0  0  0  0
   -3.0949   -0.0611    6.7620 C   0  0  0  0  0  0  0  0  0  0  0  0
   -3.5084    0.8910    5.6291 C   0  0  0  0  0  0  0  0  0  0  0  0
   -4.6791    0.3875    4.8003 C   0  0  0  0  0  0  0  0  0  0  0  0
   -5.9185    0.3412    5.5664 N   0  0  0  0  0  0  0  0  0  0  0  0
   -7.1743   -0.0389    5.1407 C   0  0  0  0  0  0  0  0  0  0  0  0
   -8.1726    0.2877    5.7604 O   0  0  0  0  0  0  0  0  0  0  0  0
   -7.2932   -0.8380    3.9069 C   0  0  0  0  0  0  0  0  0  0  0  0
   -8.3067   -0.5636    2.9862 C   0  0  0  0  0  0  0  0  0  0  0  0
   -8.3381   -1.2736    1.7897 C   0  0  0  0  0  0  0  0  0  0  0  0
   -7.3311   -2.2127    1.5097 C   0  0  0  0  0  0  0  0  0  0  0  0
   -7.2722   -2.8435    0.1942 C   0  0  0  0  0  0  0  0  0  0  0  0
   -7.2541   -1.8996   -0.9593 C   0  0  0  0  0  0  0  0  0  0  0  0
   -8.1457   -1.7633   -1.8845 N   0  0  0  0  0  0  0  0  0  0  0  0
   -7.6618   -0.7922   -2.7596 C   0  0  0  0  0  0  0  0  0  0  0  0
   -8.1416   -0.6909   -4.0318 C   0  0  0  0  0  0  0  0  0  0  0  0
   -7.3229   -0.3018   -5.2446 C   0  0  0  0  0  0  0  0  0  0  0  0
   -7.9643   -0.2133   -6.5003 C   0  0  0  0  0  0  0  0  0  0  0  0
   -9.3027   -0.1755   -6.5859 F   0  0  0  0  0  0  0  0  0  0  0  0
   -7.2538   -0.2669   -7.7027 C   0  0  0  0  0  0  0  0  0  0  0  0
   -7.9175   -0.3274   -8.8651 F   0  0  0  0  0  0  0  0  0  0  0  0
   -5.8746   -0.3378   -7.6978 C   0  0  0  0  0  0  0  0  0  0  0  0
   -5.1940   -0.4643   -8.8441 F   0  0  0  0  0  0  0  0  0  0  0  0
   -5.2052   -0.3269   -6.4931 C   0  0  0  0  0  0  0  0  0  0  0  0
   -3.8670   -0.4047   -6.4673 F   0  0  0  0  0  0  0  0  0  0  0  0
   -5.9132   -0.3262   -5.2908 C   0  0  0  0  0  0  0  0  0  0  0  0
   -5.1623   -0.4598   -4.1929 F   0  0  0  0  0  0  0  0  0  0  0  0
   -9.4046   -1.3751   -4.1594 C   0  0  0  0  0  0  0  0  0  0  0  0
  -10.6481   -1.2393   -3.5726 C   0  0  0  0  0  0  0  0  0  0  0  0
  -11.1226   -2.5743   -3.4025 C   0  0  0  0  0  0  0  0  0  0  0  0
  -10.1725   -3.4358   -3.9520 C   0  0  0  0  0  0  0  0  0  0  0  0
   -9.4095   -2.6179   -4.7426 N   0  0  0  0  0  0  0  0  0  0  0  0
   -9.8855   -4.8344   -3.7402 C   0  0  0  0  0  0  0  0  0  0  0  0
  -10.9119   -5.6306   -2.9832 C   0  0  0  0  0  0  0  0  0  0  0  0
  -10.7471   -6.0827   -1.6619 C   0  0  0  0  0  0  0  0  0  0  0  0
   -9.6144   -5.8519   -0.9877 F   0  0  0  0  0  0  0  0  0  0  0  0
  -11.7775   -6.7360   -0.9871 C   0  0  0  0  0  0  0  0  0  0  0  0
  -11.5895   -7.1717    0.2677 F   0  0  0  0  0  0  0  0  0  0  0  0
  -13.0086   -6.9064   -1.5972 C   0  0  0  0  0  0  0  0  0  0  0  0
  -14.0129   -7.4971   -0.9345 F   0  0  0  0  0  0  0  0  0  0  0  0
  -13.2066   -6.4394   -2.8862 C   0  0  0  0  0  0  0  0  0  0  0  0
  -14.4103   -6.5572   -3.4635 F   0  0  0  0  0  0  0  0  0  0  0  0
  -12.1672   -5.8221   -3.5758 C   0  0  0  0  0  0  0  0  0  0  0  0
  -12.4015   -5.3641   -4.8159 F   0  0  0  0  0  0  0  0  0  0  0  0
   -8.6769   -5.4197   -3.9848 C   0  0  0  0  0  0  0  0  0  0  0  0
   -8.3092   -6.5898   -3.3399 N   0  0  0  0  0  0  0  0  0  0  0  0
   -7.0097   -6.5277   -3.2636 C   0  0  0  0  0  0  0  0  0  0  0  0
   -6.2264   -6.9824   -2.0901 C   0  0  0  0  0  0  0  0  0  0  0  0
   -5.1522   -7.9934   -2.2016 C   0  0  0  0  0  0  0  0  0  0  0  0
   -5.2154   -9.0112   -3.1671 C   0  0  0  0  0  0  0  0  0  0  0  0
   -6.3512   -9.2271   -3.8460 F   0  0  0  0  0  0  0  0  0  0  0  0
   -4.0917   -9.7716   -3.5050 C   0  0  0  0  0  0  0  0  0  0  0  0
   -4.1718  -10.6867   -4.4810 F   0  0  0  0  0  0  0  0  0  0  0  0
   -2.8773   -9.5390   -2.8827 C   0  0  0  0  0  0  0  0  0  0  0  0
   -1.7827  -10.2175   -3.2539 F   0  0  0  0  0  0  0  0  0  0  0  0
   -2.7904   -8.5662   -1.9048 C   0  0  0  0  0  0  0  0  0  0  0  0
   -1.6082   -8.3064   -1.3314 F   0  0  0  0  0  0  0  0  0  0  0  0
   -3.9097   -7.8045   -1.5671 C   0  0  0  0  0  0  0  0  0  0  0  0
   -3.7344   -6.8118   -0.6831 F   0  0  0  0  0  0  0  0  0  0  0  0
   -6.4945   -6.1311   -1.0710 C   0  0  0  0  0  0  0  0  0  0  0  0
   -6.3078   -6.3094    0.3567 C   0  0  0  0  0  0  0  0  0  0  0  0
   -6.7388   -5.1957    0.9899 C   0  0  0  0  0  0  0  0  0  0  0  0
   -7.0624   -4.1625    0.0011 C   0  0  0  0  0  0  0  0  0  0  0  0
   -7.0077   -4.8460   -1.1757 N   0  0  0  0  0  0  0  0  0  0  0  0
   -6.3719   -5.6031   -4.1872 C   0  0  0  0  0  0  0  0  0  0  0  0
   -7.4432   -4.9070   -4.5751 C   0  0  0  0  0  0  0  0  0  0  0  0
   -6.5101   -0.2140   -2.1173 C   0  0  0  0  0  0  0  0  0  0  0  0
   -6.1604   -0.9194   -1.0392 C   0  0  0  0  0  0  0  0  0  0  0  0
   -6.3312   -2.4738    2.4406 C   0  0  0  0  0  0  0  0  0  0  0  0
   -6.3754   -1.8603    3.6715 C   0  0  0  0  0  0  0  0  0  0  0  0
    1.6367   -1.8716    2.9525 N   0  0  0  0  0  0  0  0  0  0  0  0
    1.6883   -0.5703    2.2957 C   0  0  0  0  0  0  0  0  0  0  0  0
    0.4879   -0.0993   -0.9284 H   0  0  0  0  0  0  0  0  0  0  0  0
    2.1478   -0.3009   -0.4212 H   0  0  0  0  0  0  0  0  0  0  0  0
    1.2300    1.0829    0.1226 H   0  0  0  0  0  0  0  0  0  0  0  0
   -1.3618   -0.4239    0.6288 H   0  0  0  0  0  0  0  0  0  0  0  0
   -0.6947    0.7432    1.7451 H   0  0  0  0  0  0  0  0  0  0  0  0
   -1.0713   -0.8729    2.2922 H   0  0  0  0  0  0  0  0  0  0  0  0
    1.4257   -2.5485    0.0741 H   0  0  0  0  0  0  0  0  0  0  0  0
   -0.2219   -2.6625    0.4663 H   0  0  0  0  0  0  0  0  0  0  0  0
    1.8206   -5.3465    0.6436 H   0  0  0  0  0  0  0  0  0  0  0  0
    1.0170   -7.5103   -0.1067 H   0  0  0  0  0  0  0  0  0  0  0  0
   -0.6988   -8.6735    1.1519 H   0  0  0  0  0  0  0  0  0  0  0  0
   -1.6403   -7.6652    3.1465 H   0  0  0  0  0  0  0  0  0  0  0  0
   -0.8416   -5.5032    3.8991 H   0  0  0  0  0  0  0  0  0  0  0  0
    3.2599   -5.8394    4.0867 H   0  0  0  0  0  0  0  0  0  0  0  0
    3.4248   -7.6403    5.7066 H   0  0  0  0  0  0  0  0  0  0  0  0
    0.7474   -5.6114    8.2320 H   0  0  0  0  0  0  0  0  0  0  0  0
    0.5250   -3.8449    6.5821 H   0  0  0  0  0  0  0  0  0  0  0  0
    2.6542   -0.4963    4.8701 H   0  0  0  0  0  0  0  0  0  0  0  0
    3.5714   -1.9185    5.4317 H   0  0  0  0  0  0  0  0  0  0  0  0
    0.1805   -1.0537    7.5554 H   0  0  0  0  0  0  0  0  0  0  0  0
    0.3237   -0.3431    4.7354 H   0  0  0  0  0  0  0  0  0  0  0  0
   -0.6701    0.4397    5.9750 H   0  0  0  0  0  0  0  0  0  0  0  0
   -1.0600   -2.3969    5.1657 H   0  0  0  0  0  0  0  0  0  0  0  0
   -1.8798   -1.0152    4.3876 H   0  0  0  0  0  0  0  0  0  0  0  0
   -2.1569   -1.9152    7.2092 H   0  0  0  0  0  0  0  0  0  0  0  0
   -3.3663   -1.9489    5.8856 H   0  0  0  0  0  0  0  0  0  0  0  0
   -2.3379    0.4284    7.3384 H   0  0  0  0  0  0  0  0  0  0  0  0
   -3.9959   -0.2706    7.2998 H   0  0  0  0  0  0  0  0  0  0  0  0
   -2.6691    1.0269    4.9795 H   0  0  0  0  0  0  0  0  0  0  0  0
   -3.8227    1.8045    6.0892 H   0  0  0  0  0  0  0  0  0  0  0  0
   -4.4541   -0.5980    4.4496 H   0  0  0  0  0  0  0  0  0  0  0  0
   -4.8217    1.0680    3.9870 H   0  0  0  0  0  0  0  0  0  0  0  0
   -5.8505    0.6167    6.5091 H   0  0  0  0  0  0  0  0  0  0  0  0
   -9.0203    0.1536    3.1896 H   0  0  0  0  0  0  0  0  0  0  0  0
   -9.0981   -1.1110    1.1107 H   0  0  0  0  0  0  0  0  0  0  0  0
  -11.1288   -0.3635   -3.3138 H   0  0  0  0  0  0  0  0  0  0  0  0
  -12.0092   -2.8526   -2.9537 H   0  0  0  0  0  0  0  0  0  0  0  0
   -8.9499   -2.8738   -5.5747 H   0  0  0  0  0  0  0  0  0  0  0  0
   -5.9121   -7.1465    0.8125 H   0  0  0  0  0  0  0  0  0  0  0  0
   -6.8266   -5.0889    2.0126 H   0  0  0  0  0  0  0  0  0  0  0  0
   -7.3076   -4.4601   -2.0303 H   0  0  0  0  0  0  0  0  0  0  0  0
   -5.3814   -5.5117   -4.4622 H   0  0  0  0  0  0  0  0  0  0  0  0
   -7.4041   -4.1003   -5.2175 H   0  0  0  0  0  0  0  0  0  0  0  0
   -6.0204    0.6327   -2.4464 H   0  0  0  0  0  0  0  0  0  0  0  0
   -5.3394   -0.8067   -0.4242 H   0  0  0  0  0  0  0  0  0  0  0  0
   -5.5623   -3.1224    2.2100 H   0  0  0  0  0  0  0  0  0  0  0  0
   -5.7295   -2.1568    4.4198 H   0  0  0  0  0  0  0  0  0  0  0  0
    1.3557    0.2061    2.9525 H   0  0  0  0  0  0  0  0  0  0  0  0
    2.6757   -0.2859    1.9972 H   0  0  0  0  0  0  0  0  0  0  0  0
  1  2  1  0  0  0  0
  1100  1  0  0  0  0
  1101  1  0  0  0  0
  1102  1  0  0  0  0
  2  3  1  0  0  0  0
  2  4  1  0  0  0  0
  2 99  1  0  0  0  0
  3103  1  0  0  0  0
  3104  1  0  0  0  0
  3105  1  0  0  0  0
  4  5  1  0  0  0  0
  4106  1  0  0  0  0
  4107  1  0  0  0  0
  5  6  2  0  0  0  0
  5 98  1  0  0  0  0
  6  7  1  0  0  0  0
  6 13  1  0  0  0  0
  7  8  1  0  0  0  0
  7 12  2  0  0  0  0
  8  9  2  0  0  0  0
  8108  1  0  0  0  0
  9 10  1  0  0  0  0
  9109  1  0  0  0  0
 10 11  2  0  0  0  0
 10110  1  0  0  0  0
 11 12  1  0  0  0  0
 11111  1  0  0  0  0
 12112  1  0  0  0  0
 13 14  1  0  0  0  0
 13 21  2  0  0  0  0
 14 15  1  0  0  0  0
 14 20  2  0  0  0  0
 15 16  2  0  0  0  0
 15113  1  0  0  0  0
 16 17  1  0  0  0  0
 16114  1  0  0  0  0
 17 18  1  0  0  0  0
 17 19  2  0  0  0  0
 19 20  1  0  0  0  0
 19115  1  0  0  0  0
 20116  1  0  0  0  0
 21 22  1  0  0  0  0
 21 98  1  0  0  0  0
 22 23  1  0  0  0  0
 22117  1  0  0  0  0
 22118  1  0  0  0  0
 23 24  2  0  0  0  0
 23 25  1  0  0  0  0
 25 26  1  0  0  0  0
 25119  1  0  0  0  0
 26 27  1  0  0  0  0
 26120  1  0  0  0  0
 26121  1  0  0  0  0
 27 28  1  0  0  0  0
 27122  1  0  0  0  0
 27123  1  0  0  0  0
 28 29  1  0  0  0  0
 28124  1  0  0  0  0
 28125  1  0  0  0  0
 29 30  1  0  0  0  0
 29126  1  0  0  0  0
 29127  1  0  0  0  0
 30 31  1  0  0  0  0
 30128  1  0  0  0  0
 30129  1  0  0  0  0
 31 32  1  0  0  0  0
 31130  1  0  0  0  0
 31131  1  0  0  0  0
 32 33  1  0  0  0  0
 32132  1  0  0  0  0
 33 34  2  0  0  0  0
 33 35  1  0  0  0  0
 35 36  1  0  0  0  0
 35 97  2  0  0  0  0
 36 37  2  0  0  0  0
 36133  1  0  0  0  0
 37 38  1  0  0  0  0
 37134  1  0  0  0  0
 38 39  1  0  0  0  0
 38 96  2  0  0  0  0
 39 40  1  0  0  0  0
 39 90  2  0  0  0  0
 40 41  2  0  0  0  0
 40 95  1  0  0  0  0
 41 42  1  0  0  0  0
 42 43  2  0  0  0  0
 42 94  1  0  0  0  0
 43 44  1  0  0  0  0
 43 55  1  0  0  0  0
 44 45  1  0  0  0  0
 44 53  2  0  0  0  0
 45 46  1  0  0  0  0
 45 47  2  0  0  0  0
 47 48  1  0  0  0  0
 47 49  1  0  0  0  0
 49 50  1  0  0  0  0
 49 51  2  0  0  0  0
 51 52  1  0  0  0  0
 51 53  1  0  0  0  0
 53 54  1  0  0  0  0
 55 56  2  0  0  0  0
 55 59  1  0  0  0  0
 56 57  1  0  0  0  0
 56135  1  0  0  0  0
 57 58  2  0  0  0  0
 57136  1  0  0  0  0
 58 59  1  0  0  0  0
 58 60  1  0  0  0  0
 59137  1  0  0  0  0
 60 61  1  0  0  0  0
 60 72  2  0  0  0  0
 61 62  1  0  0  0  0
 61 70  2  0  0  0  0
 62 63  1  0  0  0  0
 62 64  2  0  0  0  0
 64 65  1  0  0  0  0
 64 66  1  0  0  0  0
 66 67  1  0  0  0  0
 66 68  2  0  0  0  0
 68 69  1  0  0  0  0
 68 70  1  0  0  0  0
 70 71  1  0  0  0  0
 72 73  1  0  0  0  0
 72 93  1  0  0  0  0
 73 74  2  0  0  0  0
 74 75  1  0  0  0  0
 74 92  1  0  0  0  0
 75 76  1  0  0  0  0
 75 87  2  0  0  0  0
 76 77  1  0  0  0  0
 76 85  2  0  0  0  0
 77 78  1  0  0  0  0
 77 79  2  0  0  0  0
 79 80  1  0  0  0  0
 79 81  1  0  0  0  0
 81 82  1  0  0  0  0
 81 83  2  0  0  0  0
 83 84  1  0  0  0  0
 83 85  1  0  0  0  0
 85 86  1  0  0  0  0
 87 88  1  0  0  0  0
 87 91  1  0  0  0  0
 88 89  2  0  0  0  0
 88138  1  0  0  0  0
 89 90  1  0  0  0  0
 89139  1  0  0  0  0
 90 91  1  0  0  0  0
 91140  1  0  0  0  0
 92 93  2  0  0  0  0
 92141  1  0  0  0  0
 93142  1  0  0  0  0
 94 95  2  0  0  0  0
 94143  1  0  0  0  0
 95144  1  0  0  0  0
 96 97  1  0  0  0  0
 96145  1  0  0  0  0
 97146  1  0  0  0  0
 98 99  1  0  0  0  0
 99147  1  0  0  0  0
 99148  1  0  0  0  0
M  END
$$$$
